 ****** HSPICE -- D-2010.03-SP1 32-BIT (May 26 2010) winnt ******               
  Copyright (C) 2010 Synopsys, Inc. All Rights Reserved.                        
  Unpublished-rights reserved under US copyright laws.
  This program is protected by law and is subject to the 
  terms and conditions of the license agreement from Synopsys.
  Use of this program is your acceptance to be bound by the 
  license agreement. HSPICE is the trademark of Synopsys, Inc.
  Input File: d:\digital electronic\projects\ca_3\static_cmos_mux\static_cmos_mu
  lic:  
  lic: FLEXlm: v8.5b 
  lic: USER:   HP                   HOSTNAME: ProBook 
  lic: HOSTID: "00090faa0001 56db30007c95 16db30007c95 a4db30007c95 a45d36cb5ab9
  
  lic: Using FLEXlm license file: 
  lic: 27000@elena 
  lic: Checkout 1 hspice 
  lic: License/Maintenance for hspice will expire on 31-dec-2020/2007.9 
  lic: NODE LOCKED license on hostid "00090faa0001 56db30007c95 16db30007c95 a4d
 b
  lic:   
 Init: read install configuration file: C:\synopsys\Hspice_D-2010.03-SP1\meta.cfg
1****** HSPICE -- D-2010.03-SP1 32-BIT (May 26 2010) winnt ******               
 ******  
 first line of the netlist must be blank.

  ******  circuit name directory
 circuit number to circuit name directory
   number circuitname                     definition         multiplier
        0 main circuit
        1 x_a.                            inverter           1.00 
        2 x_b.                            inverter           1.00 
        3 x_s.                            inverter           1.00 
1****** HSPICE -- D-2010.03-SP1 32-BIT (May 26 2010) winnt ******               
 ******  
 first line of the netlist must be blank.

  ******  mos   model parameters tnom=  25.000 temp=  25.000 *****
 
Model Name: nmos  

 BSIM4 Model (Level 54)

    MOBMOD = 0
    BINUNIT = 1
    PARAMCHK = 1
    CAPMOD = 2
    DIOMOD = 1
    RDSMOD = 0
    TRNQSMOD = 0
    ACNQSMOD = 0
    RBODYMOD = 1
    RGATEMOD = 1
    PERMOD = 1
    GEOMOD = 1
    RGEOMOD = 0
    FNOIMOD = 1
    TNOIMOD = 0
    IGCMOD = 1
    IGBMOD = 1
    STIMOD = 0
    VERSION =      4 
    TOXREF = 1.65e-009 
    TOXE = 1.65e-009 
    TOXP = 1e-009 
    TOXM = 1.65e-009 
    DTOX = 6.5e-010 
    EPSROX =    3.9 
    CDSC =      0 
    CDSCB =      0 
    CDSCD =      0 
    CIT =      0 
    NFACTOR =    2.3 
    XJ = 1e-008 
    VSAT = 1.785e+005 
    A0 =      1 
    AGS =      0 
    A1 =      0 
    A2 =      1 
    AT = 3.3e+004 
    KETA =   0.04 
    NSUB = 6e+016 
    NDEP = 4.12e+018 
    NSD = 2e+020 
    NGATE = 2e+020 
    GAMMA1 =      0 
    GAMMA2 =      0 
    VBX =      0 
    VBM =     -3 
    XT = 1.55e-007 
    K1 =    0.4 
    KT1 =  -0.11 
    KT1L =      0 
    KT2 =  0.022 
    K2 =      0 
    K3 =      0 
    K3B =      0 
    LPE0 =      0 
    LPEB =      0 
    DVTP0 = 1e-011 
    DVTP1 =    0.1 
    W0 = 2.5e-006 
    DVT0 =      1 
    DVT1 =      2 
    DVT2 =      0 
    DVT0W =      0 
    DVT1W =      0 
    DVT2W =      0 
    DROUT =    0.5 
    DSUB =    0.1 
    VTH0 = 0.5088 
    EU =   1.67 
    UA = 6e-010 
    UA1 = 4.31e-009 
    UB = 1.2e-018 
    UB1 = 7.61e-018 
    UC =      0 
    UC1 = -5.6e-011 
    U0 = 0.0389 
    UTE =   -1.5 
    VOFF =  -0.13 
    VOFFL =      0 
    MINV =   0.05 
    FPROUT =    0.2 
    PDITS =   0.01 
    PDITSD =   0.23 
    PDITSL = 2.3e+006 
    DELTA =   0.01 
    RDSW =    150 
    RDSWMIN =      0 
    RDWMIN =      0 
    RSWMIN =      0 
    RDW =     75 
    RSW =     75 
    PRWG =      0 
    PRWB =      0 
    PRT =      0 
    ETA0 = 0.0042 
    ETAB =      0 
    PCLM =   0.02 
    PDIBLC1 =  0.001 
    PDIBLC2 =  0.001 
    PDIBLCB = -0.005 
    PSCBE1 = 8.14e+008 
    PSCBE2 = 1e-007 
    PVAG = 1e-020 
    WR =      1 
    DWG =      0 
    DWB =      0 
    XW =      0 
    XWREF =      0 
    XL = -1.4e-008 
    XLREF = -1.4e-008 
    B0 =      0 
    B1 =      0 
    ALPHA0 =  0.074 
    ALPHA1 =  0.005 
    AGIDL = 0.0002 
    BGIDL = 2.1e+009 
    CGIDL = 0.0002 
    PHIN =      0 
    EGIDL =    0.8 
    AIGC =  0.012 
    BIGC = 0.0028 
    CIGC =  0.002 
    AIGSD =  0.012 
    BIGSD = 0.0028 
    CIGSD =  0.002 
    AIGBACC =  0.012 
    BIGBACC = 0.0028 
    CIGBACC =  0.002 
    AIGBINV =  0.014 
    BIGBINV =  0.004 
    CIGBINV =  0.004 
    NIGC =      1 
    NIGBINV =      3 
    NIGBACC =      1 
    NTOX =      1 
    EIGBINV =    1.1 
    PIGCD =      1 
    POXEDGE =      1 
    XRCRG1 =     12 
    TNOIA =    1.5 
    TNOIB =    3.5 
    NTNOI =      1 
    XRCRG2 =      5 
    BETA0 =     30 
    IJTHDFWD =   0.01 
    IJTHSFWD =   0.01 
    IJTHDREV =  0.001 
    IJTHSREV =  0.001 
    XJBVD =      1 
    XJBVS =      1 
    BVD =     10 
    BVS =     10 
    VFB =  -0.55 
    GBMIN = 1e-010 
    RBDB =     15 
    RBPB =      5 
    RBSB =     15 
    RBPS =     15 
    RBPD =     15 
    CGSL = 2.653e-010 
    CGDL = 2.653e-010 
    CKAPPAS =   0.03 
    CKAPPAD =   0.03 
    CF = 1.208e-010 
    CLC = 1e-007 
    CLE =    0.6 
    DWC = 5e-009 
    DLC = 2.7e-009 
    DLCIG = 2.7e-009 
    DWJ =      0 
    VFBCV =     -1 
    ACDE =      1 
    MOIN =     15 
    NOFF =    0.9 
    VOFFCV =   0.02 
    DMCG =      0 
    DMCI =      0 
    DMDG =      0 
    DMCGT =      0 
    XGW =      0 
    XGL =      0 
    RSHG =    0.4 
    NGCON =      1 
    TCJ =  0.001 
    TPB =  0.005 
    TCJSW =  0.001 
    TPBSW =  0.005 
    TCJSWG =  0.001 
    TPBSWG =  0.005 
    SK0 =      0 
    SK1 =      0 
    SK2 =      0 
    SL = 2e-006 
    SW = 2e-006 
    K =      0 
    TNOM =  300.1 
    CGSO = 8.5e-011 
    CGDO = 8.5e-011 
    CGBO = 2.56e-011 
    XPART =      0 
    RSH =      5 
    JSS = 0.0001 
    JSWS = 1e-011 
    JSWGS = 1e-010 
    PBS =      1 
    MJS =    0.5 
    PBSWS =      1 
    MJSWS =   0.33 
    CJS = 0.0005 
    CJSWS = 5e-010 
    NJS =      1 
    PBSWGS =      1 
    MJSWGS =   0.33 
    CJSWGS = 3e-010 
    XTIS =      3 
    JSD = 0.0001 
    JSWD = 1e-011 
    JSWGD = 1e-010 
    PBD =      1 
    MJD =    0.5 
    PBSWD =      1 
    MJSWD =   0.33 
    CJD = 0.0005 
    CJSWD = 5e-010 
    NJD =      1 
    PBSWGD =      1 
    MJSWGD =   0.33 
    CJSWGD = 5e-010 
    XTID =      3 
    LMLT =      1 
    WMLT =      1 
    LINT = 2.7e-009 
    LL =      0 
    LLC =      0 
    LLN =      1 
    LW =      0 
    LWC =      0 
    LWN =      1 
    LWL =      0 
    LWLC =      0 
    LMIN =      0 
    LMAX =      1 
    WINT = 5e-009 
    WL =      0 
    WLC =      0 
    WLN =      1 
    WW =      0 
    WWC =      0 
    WWN =      1 
    WWL =      0 
    WWLC =      0 
    WMIN =      0 
    WMAX =      1 
    NOIA = 6.25e+041 
    NOIB = 3.125e+026 
    NOIC = 8.75e+009 
    EM = 4.1e+007 
    EF =      1 
    AF =      1 
    KF =      0 
    TRS =      0 
    TRD =      0 
 

 
Model Name: pmos  

 BSIM4 Model (Level 54)

    MOBMOD = 0
    BINUNIT = 1
    PARAMCHK = 1
    CAPMOD = 2
    DIOMOD = 1
    RDSMOD = 0
    TRNQSMOD = 0
    ACNQSMOD = 0
    RBODYMOD = 1
    RGATEMOD = 1
    PERMOD = 1
    GEOMOD = 1
    RGEOMOD = 0
    FNOIMOD = 1
    TNOIMOD = 0
    IGCMOD = 1
    IGBMOD = 1
    STIMOD = 0
    VERSION =      4 
    TOXREF = 1.75e-009 
    TOXE = 1.75e-009 
    TOXP = 1e-009 
    TOXM = 1.75e-009 
    DTOX = 7.5e-010 
    EPSROX =    3.9 
    CDSC =      0 
    CDSCB =      0 
    CDSCD =      0 
    CIT =      0 
    NFACTOR =    2.3 
    XJ = 1e-008 
    VSAT = 7e+004 
    A0 =      1 
    AGS = 1e-020 
    A1 =      0 
    A2 =      1 
    AT = 3.3e+004 
    KETA = -0.047 
    NSUB = 6e+016 
    NDEP = 3.07e+018 
    NSD = 2e+020 
    NGATE = 2e+020 
    GAMMA1 =      0 
    GAMMA2 =      0 
    VBX =      0 
    VBM =     -3 
    XT = 1.55e-007 
    K1 =    0.4 
    KT1 =  -0.11 
    KT1L =      0 
    KT2 =  0.022 
    K2 =  -0.01 
    K3 =      0 
    K3B =      0 
    LPE0 =      0 
    LPEB =      0 
    DVTP0 = 1e-011 
    DVTP1 =   0.05 
    W0 = 2.5e-006 
    DVT0 =      1 
    DVT1 =      2 
    DVT2 = -0.032 
    DVT0W =      0 
    DVT1W =      0 
    DVT2W =      0 
    DROUT =    0.6 
    DSUB =    0.1 
    VTH0 =  -0.45 
    EU =      1 
    UA = 2e-009 
    UA1 = 4.31e-009 
    UB = 5e-019 
    UB1 = 7.61e-018 
    UC =      0 
    UC1 = -5.6e-011 
    U0 = 0.00355 
    UTE =   -1.5 
    VOFF = -0.126 
    VOFFL =      0 
    MINV =   0.05 
    FPROUT =    0.2 
    PDITS =   0.08 
    PDITSD =   0.23 
    PDITSL = 2.3e+006 
    DELTA =   0.01 
    RDSW =    150 
    RDSWMIN =      0 
    RDWMIN =      0 
    RSWMIN =      0 
    RDW =     75 
    RSW =     75 
    PRWG =      0 
    PRWB =      0 
    PRT =      0 
    ETA0 = 0.0042 
    ETAB =      0 
    PCLM =    0.1 
    PDIBLC1 =  0.001 
    PDIBLC2 =  0.001 
    PDIBLCB = 3.4e-008 
    PSCBE1 = 8.14e+008 
    PSCBE2 = 9.58e-007 
    PVAG = 1e-020 
    WR =      1 
    DWG =      0 
    DWB =      0 
    XW =      0 
    XWREF =      0 
    XL = -1.4e-008 
    XLREF = -1.4e-008 
    B0 =      0 
    B1 =      0 
    ALPHA0 =  0.074 
    ALPHA1 =  0.005 
    AGIDL = 0.0002 
    BGIDL = 2.1e+009 
    CGIDL = 0.0002 
    PHIN =      0 
    EGIDL =    0.8 
    AIGC =   0.69 
    BIGC = 0.0012 
    CIGC = 0.0008 
    AIGSD = 0.0087 
    BIGSD = 0.0012 
    CIGSD = 0.0008 
    AIGBACC =  0.012 
    BIGBACC = 0.0028 
    CIGBACC =  0.002 
    AIGBINV =  0.014 
    BIGBINV =  0.004 
    CIGBINV =  0.004 
    NIGC =      1 
    NIGBINV =      3 
    NIGBACC =      1 
    NTOX =      1 
    EIGBINV =    1.1 
    PIGCD =      1 
    POXEDGE =      1 
    XRCRG1 =     12 
    TNOIA =    1.5 
    TNOIB =    3.5 
    NTNOI =      1 
    XRCRG2 =      5 
    BETA0 =     30 
    IJTHDFWD =   0.01 
    IJTHSFWD =   0.01 
    IJTHDREV =  0.001 
    IJTHSREV =  0.001 
    XJBVD =      1 
    XJBVS =      1 
    BVD =     10 
    BVS =     10 
    VFB =   0.55 
    GBMIN = 1e-010 
    RBDB =     15 
    RBPB =      5 
    RBSB =     15 
    RBPS =     15 
    RBPD =     15 
    CGSL = 2.653e-010 
    CGDL = 2.653e-010 
    CKAPPAS =   0.03 
    CKAPPAD =   0.03 
    CF = 1.195e-010 
    CLC = 1e-007 
    CLE =    0.6 
    DWC = 5e-009 
    DLC = 2.7e-009 
    DLCIG = 2.7e-009 
    DWJ =      0 
    VFBCV =     -1 
    ACDE =      1 
    MOIN =     15 
    NOFF =    0.9 
    VOFFCV =   0.02 
    DMCG =      0 
    DMCI =      0 
    DMDG =      0 
    DMCGT =      0 
    XGW =      0 
    XGL =      0 
    RSHG =    0.4 
    NGCON =      1 
    TCJ =  0.001 
    TPB =  0.005 
    TCJSW =  0.001 
    TPBSW =  0.005 
    TCJSWG =  0.001 
    TPBSWG =  0.005 
    SK0 =      0 
    SK1 =      0 
    SK2 =      0 
    SL = 2e-006 
    SW = 2e-006 
    K =      0 
    TNOM =  300.1 
    CGSO = 8.5e-011 
    CGDO = 8.5e-011 
    CGBO = 2.56e-011 
    XPART =      0 
    RSH =      5 
    JSS = 0.0001 
    JSWS = 1e-011 
    JSWGS = 1e-010 
    PBS =      1 
    MJS =    0.5 
    PBSWS =      1 
    MJSWS =   0.33 
    CJS = 0.0005 
    CJSWS = 5e-010 
    NJS =      1 
    PBSWGS =      1 
    MJSWGS =   0.33 
    CJSWGS = 3e-010 
    XTIS =      3 
    JSD = 0.0001 
    JSWD = 1e-011 
    JSWGD = 1e-010 
    PBD =      1 
    MJD =    0.5 
    PBSWD =      1 
    MJSWD =   0.33 
    CJD = 0.0005 
    CJSWD = 5e-010 
    NJD =      1 
    PBSWGD =      1 
    MJSWGD =   0.33 
    CJSWGD = 5e-010 
    XTID =      3 
    LMLT =      1 
    WMLT =      1 
    LINT = 2.7e-009 
    LL =      0 
    LLC =      0 
    LLN =      1 
    LW =      0 
    LWC =      0 
    LWN =      1 
    LWL =      0 
    LWLC =      0 
    LMIN =      0 
    LMAX =      1 
    WINT = 5e-009 
    WL =      0 
    WLC =      0 
    WLN =      1 
    WW =      0 
    WWC =      0 
    WWN =      1 
    WWL =      0 
    WWLC =      0 
    WMIN =      0 
    WMAX =      1 
    NOIA = 6.188e+040 
    NOIB = 1.5e+025 
    NOIC = 8.75e+009 
    EM = 4.1e+007 
    EF =      1 
    AF =      1 
    KF =      0 
    TRS =      0 
    TRD =      0 
 

  **info** (d:\digital electronic\projects\ca_3\static_cmos_mux\static_cmos_mux.sp:58) DC voltage reset to initial transient source value              in source        0:vina                new dc=  0.0000D+00
 Warning:  Acde = 1 may be too small in BSIM4 model nmos with w=2.2e-007 l=3.2e-008.

 Warning:  Acde = 1 may be too small in BSIM4 model pmos with w=4.4e-007 l=3.2e-008.

 
      
 **info** set option symb=1 internally to help for convergence.
 *****************************************************************
 ******  option summary
 ******
 runlvl  = 3         bypass  = 2         
  Opening plot unit= 79
 file=d:\digital electronic\projects\ca_3\static_cmos_mux\static_cmos_mux.pa0  

1****** HSPICE -- D-2010.03-SP1 32-BIT (May 26 2010) winnt ******               
 ******  
 first line of the netlist must be blank.

  ******  operating point information tnom=  25.000 temp=  25.000 *****
 ***** operating point status is all       simulation time is     0.     
    node    =voltage      node    =voltage      node    =voltage

 +0:a       =   0.      0:a_bar   = 999.8523m 0:b       =   0.     
 +0:b_bar   = 999.8523m 0:drain_a_= 266.5863m 0:drain_b_= 836.8266m
 +0:out     =  45.8008u 0:s       =   0.      0:s_bar   = 999.8523m
 +0:vdd     =   1.0000  0:w       =  32.5170u


 ****  voltage sources

 subckt                                              
 element  0:v1       0:vina     0:vinb     0:vinc    
  volts      1.0000     0.         0.         0.     
  current -263.5089n    1.2857n    1.2857n    1.2861n
  power    263.5089n    0.         0.         0.     

     total voltage source power dissipation=  263.5089n       watts




 **** mosfets


 subckt                                                                    
 element  0:m_p_a_ba 0:m_p_s    0:m_p_b_ba 0:m_p_s_ba 0:m_n_b_ba 0:m_n_s_ba
 model    0:pmos     0:pmos     0:pmos     0:pmos     0:nmos     0:nmos    
 region       Cutoff     Cutoff     Cutoff     Cutoff     Linear     Linear
  id       -22.7807n  -22.7899n -426.6143p -427.1502p   13.6637n   13.6637n
  ibs     -6.983e-25  733.4485f -1.628e-25  163.2082f  -32.5390a  -32.5390a
  ibd      743.4137f    1.0100p  173.1560f    1.0100p  -63.6119a  -63.6119a
  vgs     -147.6952u -266.5863m -147.6793u  163.0257m  999.8198m  999.8198m
  vds     -733.4137m -266.5405m -163.1734m -836.7808m   13.2838u   13.2838u
  vbs        0.       733.4137m    0.       163.1734m  -32.5170u  -32.5170u
  vth     -233.2115m -471.2797m -386.8626m -233.8633m  494.9020m  494.9020m
  vdsat    -45.9167m  -49.4067m  -46.0863m  -46.1508m  287.5578m  287.5577m
  vod      233.0638m  204.6934m  386.7149m  396.8890m  504.9178m  504.9177m
  beta       1.6624m    1.1810m    1.3205m    1.6596m    8.1338m    8.1338m
  gam eff  400.0000m  400.0000m  400.0000m  400.0000m  400.0000m  400.0000m
  gm       516.9024n  559.2607n   10.1273n   10.4780n    5.9171n    5.9171n
  gds      156.4911n  166.2795n    3.1166n    3.2369n    1.0286m    1.0286m
  gmb      112.3138n   80.7152n    2.4935n    2.3205n    2.1931n    2.1931n
  cdtot    286.3355a  336.2594a  342.9208a  274.7813a  302.0695a  302.0695a
  cgtot    298.4296a  375.0421a  329.3521a  267.8487a  268.0854a  268.0854a
  cstot    512.6806a  484.5790a  512.6258a  468.3051a  274.1817a  274.1817a
  cbtot    568.7382a  490.8678a  594.3420a  543.3853a  301.4264a  301.4264a
  cgs      161.4041a  191.2316a  161.3312a  133.9499a  150.4784a  150.4784a
  cgd      102.9637a  161.2933a  133.9479a   99.8257a  116.6531a  116.6531a



 subckt                         x_a        x_a        x_b        x_b       
 element  0:m_n_a_ba 0:m_n_s    1:mn       1:mp       2:mn       2:mp      
 model    0:nmos     0:nmos     0:nmos     0:pmos     0:nmos     0:pmos    
 region       Linear     Cutoff     Cutoff     Linear     Cutoff     Linear
  id        33.4469n  437.1908f   74.7202n  -80.0665n   74.7202n  -80.0579n
  ibs      8.052e-26    0.       9.696e-25 -2.876e-25  9.696e-25 -2.876e-25
  ibd      -45.1655a  -45.1655a   -1.0099p  205.0174a   -1.0099p  204.9954a
  vgs      999.8523m    0.         0.        -1.0000     0.        -1.0000 
  vds       32.5170u   32.5170u  999.8523m -147.6952u  999.8523m -147.6793u
  vbs        0.         0.         0.         0.         0.         0.     
  vth      494.8914m  494.8914m  274.7608m -430.7898m  274.7608m -430.7898m
  vdsat    287.5771m   39.8714m   38.2785m -427.4312m   38.2785m -427.4312m
  vod      504.9609m -494.8914m -274.7608m -569.2102m -274.7608m -569.2102m
  beta       8.1337m   10.7548m   14.3318m    1.2003m   14.3318m    1.2003m
  gam eff  400.0000m  400.0000m  400.0000m  400.0000m  400.0000m  400.0000m
  gm        14.4832n   10.1109p    1.6566u   91.6126n    1.6566u   91.6027n
  gds        1.0286m   13.4408n  398.9017n  542.0480u  398.9018n  542.0480u
  gmb        5.3681n    2.9374p  397.5209n   29.1032n  397.5210n   29.1001n
  cdtot    302.0603a  188.8225a  136.5002a  604.0198a  136.5002a  604.0198a
  cgtot    268.0855a  175.9418a  145.9367a  559.3083a  145.9367a  559.3083a
  cstot    274.1906a  254.6945a  254.7099a  563.6484a  254.7099a  563.6484a
  cbtot    301.4287a  303.2779a  280.9788a  602.0785a  280.9788a  602.0785a
  cgs      150.4822a   79.0471a   79.0710a  326.2387a   79.0710a  326.2387a
  cgd      116.6495a   79.0437a   49.0189a  230.4586a   49.0189a  230.4586a



 subckt   x_s        x_s       
 element  3:mn       3:mp      
 model    0:nmos     0:pmos    
 region       Cutoff     Linear
  id        74.7202n  -80.0866n
  ibs      9.696e-25 -2.875e-25
  ibd       -1.0099p  205.0689a
  vgs        0.        -1.0000 
  vds      999.8523m -147.7323u
  vbs        0.         0.     
  vth      274.7608m -430.7898m
  vdsat     38.2785m -427.4312m
  vod     -274.7608m -569.2102m
  beta      14.3318m    1.2003m
  gam eff  400.0000m  400.0000m
  gm         1.6566u   91.6356n
  gds      398.9017n  542.0479u
  gmb      397.5209n   29.1105n
  cdtot    136.5002a  604.0198a
  cgtot    145.9367a  559.3083a
  cstot    254.7099a  563.6485a
  cbtot    280.9788a  602.0785a
  cgs       79.0710a  326.2387a
  cgd       49.0189a  230.4586a



 ******  
 first line of the netlist must be blank.

  ******  transient analysis tnom=  25.000 temp=  25.000 *****
   pow=  1.0785E-06  from=  1.0000E-09     to=  1.7000E-07
x

        time    voltage      voltage      voltage      voltage    
                    out           a            b            s     
    0.           45.8008u      0.           0.           0.       
   10.00000p     45.8008u      0.           0.           0.       
   20.00000p     45.8008u      0.           0.           0.       
   30.00000p     45.8008u      0.           0.           0.       
   40.00000p     45.8008u      0.           0.           0.       
   50.00000p     45.8008u      0.           0.           0.       
   60.00000p     45.8008u      0.           0.           0.       
   70.00000p     45.8008u      0.           0.           0.       
   80.00000p     45.8008u      0.           0.           0.       
   90.00000p     45.8008u      0.           0.           0.       
  100.00000p     45.8008u      0.           0.           0.       
  110.00000p     45.8008u      0.           0.           0.       
  120.00000p     45.8008u      0.           0.           0.       
  130.00000p     45.8008u      0.           0.           0.       
  140.00000p     45.8008u      0.           0.           0.       
  150.00000p     45.8008u      0.           0.           0.       
  160.00000p     45.8008u      0.           0.           0.       
  170.00000p     45.8008u      0.           0.           0.       
  180.00000p     45.8008u      0.           0.           0.       
  190.00000p     45.8008u      0.           0.           0.       
  200.00000p     45.8008u      0.           0.           0.       
  210.00000p     45.8008u      0.           0.           0.       
  220.00000p     45.8008u      0.           0.           0.       
  230.00000p     45.8008u      0.           0.           0.       
  240.00000p     45.8008u      0.           0.           0.       
  250.00000p     45.8008u      0.           0.           0.       
  260.00000p     45.8008u      0.           0.           0.       
  270.00000p     45.8008u      0.           0.           0.       
  280.00000p     45.8008u      0.           0.           0.       
  290.00000p     45.8008u      0.           0.           0.       
  300.00000p     45.8008u      0.           0.           0.       
  310.00000p     45.8008u      0.           0.           0.       
  320.00000p     45.8008u      0.           0.           0.       
  330.00000p     45.8008u      0.           0.           0.       
  340.00000p     45.8008u      0.           0.           0.       
  350.00000p     45.8008u      0.           0.           0.       
  360.00000p     45.8008u      0.           0.           0.       
  370.00000p     45.8008u      0.           0.           0.       
  380.00000p     45.8008u      0.           0.           0.       
  390.00000p     45.8008u      0.           0.           0.       
  400.00000p     45.8008u      0.           0.           0.       
  410.00000p     45.8008u      0.           0.           0.       
  420.00000p     45.8008u      0.           0.           0.       
  430.00000p     45.8008u      0.           0.           0.       
  440.00000p     45.8008u      0.           0.           0.       
  450.00000p     45.8008u      0.           0.           0.       
  460.00000p     45.8008u      0.           0.           0.       
  470.00000p     45.8008u      0.           0.           0.       
  480.00000p     45.8008u      0.           0.           0.       
  490.00000p     45.8008u      0.           0.           0.       
  500.00000p     45.8008u      0.           0.           0.       
  510.00000p     45.8008u      0.           0.           0.       
  520.00000p     45.8008u      0.           0.           0.       
  530.00000p     45.8008u      0.           0.           0.       
  540.00000p     45.8008u      0.           0.           0.       
  550.00000p     45.8008u      0.           0.           0.       
  560.00000p     45.8008u      0.           0.           0.       
  570.00000p     45.8008u      0.           0.           0.       
  580.00000p     45.8008u      0.           0.           0.       
  590.00000p     45.8008u      0.           0.           0.       
  600.00000p     45.8008u      0.           0.           0.       
  610.00000p     45.8008u      0.           0.           0.       
  620.00000p     45.8008u      0.           0.           0.       
  630.00000p     45.8008u      0.           0.           0.       
  640.00000p     45.8008u      0.           0.           0.       
  650.00000p     45.8008u      0.           0.           0.       
  660.00000p     45.8008u      0.           0.           0.       
  670.00000p     45.8008u      0.           0.           0.       
  680.00000p     45.8008u      0.           0.           0.       
  690.00000p     45.8008u      0.           0.           0.       
  700.00000p     45.8008u      0.           0.           0.       
  710.00000p     45.8008u      0.           0.           0.       
  720.00000p     45.8008u      0.           0.           0.       
  730.00000p     45.8008u      0.           0.           0.       
  740.00000p     45.8008u      0.           0.           0.       
  750.00000p     45.8008u      0.           0.           0.       
  760.00000p     45.8008u      0.           0.           0.       
  770.00000p     45.8008u      0.           0.           0.       
  780.00000p     45.8008u      0.           0.           0.       
  790.00000p     45.8008u      0.           0.           0.       
  800.00000p     45.8008u      0.           0.           0.       
  810.00000p     45.8008u      0.           0.           0.       
  820.00000p     45.8008u      0.           0.           0.       
  830.00000p     45.8008u      0.           0.           0.       
  840.00000p     45.8008u      0.           0.           0.       
  850.00000p     45.8008u      0.           0.           0.       
  860.00000p     45.8008u      0.           0.           0.       
  870.00000p     45.8008u      0.           0.           0.       
  880.00000p     45.8008u      0.           0.           0.       
  890.00000p     45.8008u      0.           0.           0.       
  900.00000p     45.8008u      0.           0.           0.       
  910.00000p     45.8008u      0.           0.           0.       
  920.00000p     45.8008u      0.           0.           0.       
  930.00000p     45.8008u      0.           0.           0.       
  940.00000p     45.8008u      0.           0.           0.       
  950.00000p     45.8008u      0.           0.           0.       
  960.00000p     45.8008u      0.           0.           0.       
  970.00000p     45.8008u      0.           0.           0.       
  980.00000p     45.8008u      0.           0.           0.       
  990.00000p     45.8008u      0.           0.           0.       
    1.00000n     45.8008u      0.           0.           0.       
    1.01000n     45.8008u      0.           0.           0.       
    1.02000n     45.8008u      0.           0.           0.       
    1.03000n     45.8008u      0.           0.           0.       
    1.04000n     45.8008u      0.           0.           0.       
    1.05000n     45.8008u      0.           0.           0.       
    1.06000n     45.8008u      0.           0.           0.       
    1.07000n     45.8008u      0.           0.           0.       
    1.08000n     45.8008u      0.           0.           0.       
    1.09000n     45.8008u      0.           0.           0.       
    1.10000n     45.8008u      0.           0.           0.       
    1.11000n     45.8008u      0.           0.           0.       
    1.12000n     45.8008u      0.           0.           0.       
    1.13000n     45.8008u      0.           0.           0.       
    1.14000n     45.8008u      0.           0.           0.       
    1.15000n     45.8008u      0.           0.           0.       
    1.16000n     45.8008u      0.           0.           0.       
    1.17000n     45.8008u      0.           0.           0.       
    1.18000n     45.8008u      0.           0.           0.       
    1.19000n     45.8008u      0.           0.           0.       
    1.20000n     45.8008u      0.           0.           0.       
    1.21000n     45.8008u      0.           0.           0.       
    1.22000n     45.8008u      0.           0.           0.       
    1.23000n     45.8008u      0.           0.           0.       
    1.24000n     45.8008u      0.           0.           0.       
    1.25000n     45.8008u      0.           0.           0.       
    1.26000n     45.8008u      0.           0.           0.       
    1.27000n     45.8008u      0.           0.           0.       
    1.28000n     45.8008u      0.           0.           0.       
    1.29000n     45.8008u      0.           0.           0.       
    1.30000n     45.8008u      0.           0.           0.       
    1.31000n     45.8008u      0.           0.           0.       
    1.32000n     45.8008u      0.           0.           0.       
    1.33000n     45.8008u      0.           0.           0.       
    1.34000n     45.8008u      0.           0.           0.       
    1.35000n     45.8008u      0.           0.           0.       
    1.36000n     45.8008u      0.           0.           0.       
    1.37000n     45.8008u      0.           0.           0.       
    1.38000n     45.8008u      0.           0.           0.       
    1.39000n     45.8008u      0.           0.           0.       
    1.40000n     45.8008u      0.           0.           0.       
    1.41000n     45.8008u      0.           0.           0.       
    1.42000n     45.8008u      0.           0.           0.       
    1.43000n     45.8008u      0.           0.           0.       
    1.44000n     45.8008u      0.           0.           0.       
    1.45000n     45.8008u      0.           0.           0.       
    1.46000n     45.8008u      0.           0.           0.       
    1.47000n     45.8008u      0.           0.           0.       
    1.48000n     45.8008u      0.           0.           0.       
    1.49000n     45.8008u      0.           0.           0.       
    1.50000n     45.8008u      0.           0.           0.       
    1.51000n     45.8008u      0.           0.           0.       
    1.52000n     45.8008u      0.           0.           0.       
    1.53000n     45.8008u      0.           0.           0.       
    1.54000n     45.8008u      0.           0.           0.       
    1.55000n     45.8008u      0.           0.           0.       
    1.56000n     45.8008u      0.           0.           0.       
    1.57000n     45.8008u      0.           0.           0.       
    1.58000n     45.8008u      0.           0.           0.       
    1.59000n     45.8008u      0.           0.           0.       
    1.60000n     45.8008u      0.           0.           0.       
    1.61000n     45.8008u      0.           0.           0.       
    1.62000n     45.8008u      0.           0.           0.       
    1.63000n     45.8008u      0.           0.           0.       
    1.64000n     45.8008u      0.           0.           0.       
    1.65000n     45.8008u      0.           0.           0.       
    1.66000n     45.8008u      0.           0.           0.       
    1.67000n     45.8008u      0.           0.           0.       
    1.68000n     45.8008u      0.           0.           0.       
    1.69000n     45.8008u      0.           0.           0.       
    1.70000n     45.8008u      0.           0.           0.       
    1.71000n     45.8008u      0.           0.           0.       
    1.72000n     45.8008u      0.           0.           0.       
    1.73000n     45.8008u      0.           0.           0.       
    1.74000n     45.8008u      0.           0.           0.       
    1.75000n     45.8008u      0.           0.           0.       
    1.76000n     45.8008u      0.           0.           0.       
    1.77000n     45.8008u      0.           0.           0.       
    1.78000n     45.8008u      0.           0.           0.       
    1.79000n     45.8008u      0.           0.           0.       
    1.80000n     45.8008u      0.           0.           0.       
    1.81000n     45.8008u      0.           0.           0.       
    1.82000n     45.8008u      0.           0.           0.       
    1.83000n     45.8008u      0.           0.           0.       
    1.84000n     45.8008u      0.           0.           0.       
    1.85000n     45.8008u      0.           0.           0.       
    1.86000n     45.8008u      0.           0.           0.       
    1.87000n     45.8008u      0.           0.           0.       
    1.88000n     45.8008u      0.           0.           0.       
    1.89000n     45.8008u      0.           0.           0.       
    1.90000n     45.8008u      0.           0.           0.       
    1.91000n     45.8008u      0.           0.           0.       
    1.92000n     45.8008u      0.           0.           0.       
    1.93000n     45.8008u      0.           0.           0.       
    1.94000n     45.8008u      0.           0.           0.       
    1.95000n     45.8008u      0.           0.           0.       
    1.96000n     45.8008u      0.           0.           0.       
    1.97000n     45.8008u      0.           0.           0.       
    1.98000n     45.8008u      0.           0.           0.       
    1.99000n     45.8008u      0.           0.           0.       
    2.00000n     45.8008u      0.           0.           0.       
    2.01000n     45.8008u      0.           0.           0.       
    2.02000n     45.8008u      0.           0.           0.       
    2.03000n     45.8008u      0.           0.           0.       
    2.04000n     45.8008u      0.           0.           0.       
    2.05000n     45.8008u      0.           0.           0.       
    2.06000n     45.8008u      0.           0.           0.       
    2.07000n     45.8008u      0.           0.           0.       
    2.08000n     45.8008u      0.           0.           0.       
    2.09000n     45.8008u      0.           0.           0.       
    2.10000n     45.8008u      0.           0.           0.       
    2.11000n     45.8008u      0.           0.           0.       
    2.12000n     45.8008u      0.           0.           0.       
    2.13000n     45.8008u      0.           0.           0.       
    2.14000n     45.8008u      0.           0.           0.       
    2.15000n     45.8008u      0.           0.           0.       
    2.16000n     45.8008u      0.           0.           0.       
    2.17000n     45.8008u      0.           0.           0.       
    2.18000n     45.8008u      0.           0.           0.       
    2.19000n     45.8008u      0.           0.           0.       
    2.20000n     45.8008u      0.           0.           0.       
    2.21000n     45.8008u      0.           0.           0.       
    2.22000n     45.8008u      0.           0.           0.       
    2.23000n     45.8008u      0.           0.           0.       
    2.24000n     45.8008u      0.           0.           0.       
    2.25000n     45.8008u      0.           0.           0.       
    2.26000n     45.8008u      0.           0.           0.       
    2.27000n     45.8008u      0.           0.           0.       
    2.28000n     45.8008u      0.           0.           0.       
    2.29000n     45.8008u      0.           0.           0.       
    2.30000n     45.8008u      0.           0.           0.       
    2.31000n     45.8008u      0.           0.           0.       
    2.32000n     45.8008u      0.           0.           0.       
    2.33000n     45.8008u      0.           0.           0.       
    2.34000n     45.8008u      0.           0.           0.       
    2.35000n     45.8008u      0.           0.           0.       
    2.36000n     45.8008u      0.           0.           0.       
    2.37000n     45.8008u      0.           0.           0.       
    2.38000n     45.8008u      0.           0.           0.       
    2.39000n     45.8008u      0.           0.           0.       
    2.40000n     45.8008u      0.           0.           0.       
    2.41000n     45.8008u      0.           0.           0.       
    2.42000n     45.8008u      0.           0.           0.       
    2.43000n     45.8008u      0.           0.           0.       
    2.44000n     45.8008u      0.           0.           0.       
    2.45000n     45.8008u      0.           0.           0.       
    2.46000n     45.8008u      0.           0.           0.       
    2.47000n     45.8008u      0.           0.           0.       
    2.48000n     45.8008u      0.           0.           0.       
    2.49000n     45.8008u      0.           0.           0.       
    2.50000n    -29.9133m      0.           0.           1.0000   
    2.51000n     10.0666m      0.           0.           1.0000   
    2.52000n      3.4208m      0.           0.           1.0000   
    2.53000n      1.8571m      0.           0.           1.0000   
    2.54000n      1.2956m      0.           0.           1.0000   
    2.55000n    979.9318u      0.           0.           1.0000   
    2.56000n    781.3282u      0.           0.           1.0000   
    2.57000n    628.1744u      0.           0.           1.0000   
    2.58000n    561.4375u      0.           0.           1.0000   
    2.59000n    494.7006u      0.           0.           1.0000   
    2.60000n    427.9637u      0.           0.           1.0000   
    2.61000n    384.2889u      0.           0.           1.0000   
    2.62000n    357.6730u      0.           0.           1.0000   
    2.63000n    331.0570u      0.           0.           1.0000   
    2.64000n    304.4410u      0.           0.           1.0000   
    2.65000n    277.8251u      0.           0.           1.0000   
    2.66000n    251.2091u      0.           0.           1.0000   
    2.67000n    233.1479u      0.           0.           1.0000   
    2.68000n    225.0735u      0.           0.           1.0000   
    2.69000n    216.9991u      0.           0.           1.0000   
    2.70000n    208.9247u      0.           0.           1.0000   
    2.71000n    200.8502u      0.           0.           1.0000   
    2.72000n    192.7758u      0.           0.           1.0000   
    2.73000n    184.7014u      0.           0.           1.0000   
    2.74000n    176.6270u      0.           0.           1.0000   
    2.75000n    168.5526u      0.           0.           1.0000   
    2.76000n    160.4781u      0.           0.           1.0000   
    2.77000n    154.0605u      0.           0.           1.0000   
    2.78000n    150.2765u      0.           0.           1.0000   
    2.79000n    146.4924u      0.           0.           1.0000   
    2.80000n    142.7084u      0.           0.           1.0000   
    2.81000n    138.9244u      0.           0.           1.0000   
    2.82000n    135.1403u      0.           0.           1.0000   
    2.83000n    131.3563u      0.           0.           1.0000   
    2.84000n    127.5723u      0.           0.           1.0000   
    2.85000n    123.7882u      0.           0.           1.0000   
    2.86000n    120.0042u      0.           0.           1.0000   
    2.87000n    116.2201u      0.           0.           1.0000   
    2.88000n    112.4361u      0.           0.           1.0000   
    2.89000n    108.6521u      0.           0.           1.0000   
    2.90000n    104.8680u      0.           0.           1.0000   
    2.91000n    101.0840u      0.           0.           1.0000   
    2.92000n     97.3000u      0.           0.           1.0000   
    2.93000n     93.5159u      0.           0.           1.0000   
    2.94000n     92.6170u      0.           0.           1.0000   
    2.95000n     91.8511u      0.           0.           1.0000   
    2.96000n     91.0852u      0.           0.           1.0000   
    2.97000n     90.3194u      0.           0.           1.0000   
    2.98000n     89.5535u      0.           0.           1.0000   
    2.99000n     88.7876u      0.           0.           1.0000   
    3.00000n     88.0217u      0.           0.           1.0000   
    3.01000n     87.2559u      0.           0.           1.0000   
    3.02000n     86.4900u      0.           0.           1.0000   
    3.03000n     85.7241u      0.           0.           1.0000   
    3.04000n     84.9582u      0.           0.           1.0000   
    3.05000n     84.1924u      0.           0.           1.0000   
    3.06000n     83.4265u      0.           0.           1.0000   
    3.07000n     82.6606u      0.           0.           1.0000   
    3.08000n     81.8948u      0.           0.           1.0000   
    3.09000n     81.1289u      0.           0.           1.0000   
    3.10000n     80.3630u      0.           0.           1.0000   
    3.11000n     79.5971u      0.           0.           1.0000   
    3.12000n     78.8313u      0.           0.           1.0000   
    3.13000n     78.0654u      0.           0.           1.0000   
    3.14000n     77.2995u      0.           0.           1.0000   
    3.15000n     76.5336u      0.           0.           1.0000   
    3.16000n     75.7678u      0.           0.           1.0000   
    3.17000n     75.0019u      0.           0.           1.0000   
    3.18000n     74.2360u      0.           0.           1.0000   
    3.19000n     73.4702u      0.           0.           1.0000   
    3.20000n     72.7110u      0.           0.           1.0000   
    3.21000n     72.1141u      0.           0.           1.0000   
    3.22000n     71.5171u      0.           0.           1.0000   
    3.23000n     70.9202u      0.           0.           1.0000   
    3.24000n     70.3233u      0.           0.           1.0000   
    3.25000n     69.7263u      0.           0.           1.0000   
    3.26000n     69.1294u      0.           0.           1.0000   
    3.27000n     68.5325u      0.           0.           1.0000   
    3.28000n     67.9356u      0.           0.           1.0000   
    3.29000n     67.3386u      0.           0.           1.0000   
    3.30000n     66.7417u      0.           0.           1.0000   
    3.31000n     66.1448u      0.           0.           1.0000   
    3.32000n     65.5479u      0.           0.           1.0000   
    3.33000n     64.9509u      0.           0.           1.0000   
    3.34000n     64.3540u      0.           0.           1.0000   
    3.35000n     63.7571u      0.           0.           1.0000   
    3.36000n     63.1601u      0.           0.           1.0000   
    3.37000n     62.5632u      0.           0.           1.0000   
    3.38000n     61.9663u      0.           0.           1.0000   
    3.39000n     61.3694u      0.           0.           1.0000   
    3.40000n     60.7724u      0.           0.           1.0000   
    3.41000n     60.1755u      0.           0.           1.0000   
    3.42000n     59.5786u      0.           0.           1.0000   
    3.43000n     58.9816u      0.           0.           1.0000   
    3.44000n     58.3847u      0.           0.           1.0000   
    3.45000n     57.7878u      0.           0.           1.0000   
    3.46000n     57.1909u      0.           0.           1.0000   
    3.47000n     56.5939u      0.           0.           1.0000   
    3.48000n     55.9970u      0.           0.           1.0000   
    3.49000n     55.4001u      0.           0.           1.0000   
    3.50000n     54.8031u      0.           0.           1.0000   
    3.51000n     54.2062u      0.           0.           1.0000   
    3.52000n     53.6093u      0.           0.           1.0000   
    3.53000n     53.0124u      0.           0.           1.0000   
    3.54000n     52.4154u      0.           0.           1.0000   
    3.55000n     51.8185u      0.           0.           1.0000   
    3.56000n     51.2216u      0.           0.           1.0000   
    3.57000n     50.6247u      0.           0.           1.0000   
    3.58000n     50.0277u      0.           0.           1.0000   
    3.59000n     49.4308u      0.           0.           1.0000   
    3.60000n     48.8339u      0.           0.           1.0000   
    3.61000n     48.2369u      0.           0.           1.0000   
    3.62000n     47.6400u      0.           0.           1.0000   
    3.63000n     47.0431u      0.           0.           1.0000   
    3.64000n     46.4462u      0.           0.           1.0000   
    3.65000n     46.3985u      0.           0.           1.0000   
    3.66000n     46.4142u      0.           0.           1.0000   
    3.67000n     46.4298u      0.           0.           1.0000   
    3.68000n     46.4455u      0.           0.           1.0000   
    3.69000n     46.4612u      0.           0.           1.0000   
    3.70000n     46.4768u      0.           0.           1.0000   
    3.71000n     46.4925u      0.           0.           1.0000   
    3.72000n     46.5082u      0.           0.           1.0000   
    3.73000n     46.5238u      0.           0.           1.0000   
    3.74000n     46.5395u      0.           0.           1.0000   
    3.75000n     46.5552u      0.           0.           1.0000   
    3.76000n     46.5708u      0.           0.           1.0000   
    3.77000n     46.5865u      0.           0.           1.0000   
    3.78000n     46.6022u      0.           0.           1.0000   
    3.79000n     46.6178u      0.           0.           1.0000   
    3.80000n     46.6335u      0.           0.           1.0000   
    3.81000n     46.6492u      0.           0.           1.0000   
    3.82000n     46.6648u      0.           0.           1.0000   
    3.83000n     46.6805u      0.           0.           1.0000   
    3.84000n     46.6962u      0.           0.           1.0000   
    3.85000n     46.7118u      0.           0.           1.0000   
    3.86000n     46.7275u      0.           0.           1.0000   
    3.87000n     46.7432u      0.           0.           1.0000   
    3.88000n     46.7588u      0.           0.           1.0000   
    3.89000n     46.7745u      0.           0.           1.0000   
    3.90000n     46.7902u      0.           0.           1.0000   
    3.91000n     46.8058u      0.           0.           1.0000   
    3.92000n     46.8215u      0.           0.           1.0000   
    3.93000n     46.8372u      0.           0.           1.0000   
    3.94000n     46.8528u      0.           0.           1.0000   
    3.95000n     46.8685u      0.           0.           1.0000   
    3.96000n     46.8842u      0.           0.           1.0000   
    3.97000n     46.8998u      0.           0.           1.0000   
    3.98000n     46.9155u      0.           0.           1.0000   
    3.99000n     46.9312u      0.           0.           1.0000   
    4.00000n     46.9468u      0.           0.           1.0000   
    4.01000n     46.9625u      0.           0.           1.0000   
    4.02000n     46.9782u      0.           0.           1.0000   
    4.03000n     46.9938u      0.           0.           1.0000   
    4.04000n     47.0095u      0.           0.           1.0000   
    4.05000n     47.0252u      0.           0.           1.0000   
    4.06000n     47.0408u      0.           0.           1.0000   
    4.07000n     47.0565u      0.           0.           1.0000   
    4.08000n     47.0722u      0.           0.           1.0000   
    4.09000n     47.0878u      0.           0.           1.0000   
    4.10000n     47.1035u      0.           0.           1.0000   
    4.11000n     47.1192u      0.           0.           1.0000   
    4.12000n     47.1348u      0.           0.           1.0000   
    4.13000n     47.1505u      0.           0.           1.0000   
    4.14000n     47.1662u      0.           0.           1.0000   
    4.15000n     47.1818u      0.           0.           1.0000   
    4.16000n     47.1975u      0.           0.           1.0000   
    4.17000n     47.2132u      0.           0.           1.0000   
    4.18000n     47.2288u      0.           0.           1.0000   
    4.19000n     47.2445u      0.           0.           1.0000   
    4.20000n     47.2602u      0.           0.           1.0000   
    4.21000n     47.2758u      0.           0.           1.0000   
    4.22000n     47.2915u      0.           0.           1.0000   
    4.23000n     47.3072u      0.           0.           1.0000   
    4.24000n     47.3228u      0.           0.           1.0000   
    4.25000n     47.3385u      0.           0.           1.0000   
    4.26000n     47.3542u      0.           0.           1.0000   
    4.27000n     47.3698u      0.           0.           1.0000   
    4.28000n     47.3855u      0.           0.           1.0000   
    4.29000n     47.4012u      0.           0.           1.0000   
    4.30000n     47.4168u      0.           0.           1.0000   
    4.31000n     47.4325u      0.           0.           1.0000   
    4.32000n     47.4482u      0.           0.           1.0000   
    4.33000n     47.4638u      0.           0.           1.0000   
    4.34000n     47.4795u      0.           0.           1.0000   
    4.35000n     47.4952u      0.           0.           1.0000   
    4.36000n     47.5108u      0.           0.           1.0000   
    4.37000n     47.4432u      0.           0.           1.0000   
    4.38000n     47.2585u      0.           0.           1.0000   
    4.39000n     47.0737u      0.           0.           1.0000   
    4.40000n     46.8890u      0.           0.           1.0000   
    4.41000n     46.7042u      0.           0.           1.0000   
    4.42000n     46.5194u      0.           0.           1.0000   
    4.43000n     46.3347u      0.           0.           1.0000   
    4.44000n     46.1499u      0.           0.           1.0000   
    4.45000n     45.9652u      0.           0.           1.0000   
    4.46000n     45.7804u      0.           0.           1.0000   
    4.47000n     45.5957u      0.           0.           1.0000   
    4.48000n     45.4109u      0.           0.           1.0000   
    4.49000n     45.2262u      0.           0.           1.0000   
    4.50000n     45.0414u      0.           0.           1.0000   
    4.51000n     44.8567u      0.           0.           1.0000   
    4.52000n     44.6719u      0.           0.           1.0000   
    4.53000n     44.4872u      0.           0.           1.0000   
    4.54000n     44.3024u      0.           0.           1.0000   
    4.55000n     44.1177u      0.           0.           1.0000   
    4.56000n     43.9329u      0.           0.           1.0000   
    4.57000n     43.7482u      0.           0.           1.0000   
    4.58000n     43.5634u      0.           0.           1.0000   
    4.59000n     43.3787u      0.           0.           1.0000   
    4.60000n     43.1939u      0.           0.           1.0000   
    4.61000n     43.0092u      0.           0.           1.0000   
    4.62000n     42.8244u      0.           0.           1.0000   
    4.63000n     42.6397u      0.           0.           1.0000   
    4.64000n     42.4549u      0.           0.           1.0000   
    4.65000n     42.2702u      0.           0.           1.0000   
    4.66000n     42.0854u      0.           0.           1.0000   
    4.67000n     41.9007u      0.           0.           1.0000   
    4.68000n     41.7159u      0.           0.           1.0000   
    4.69000n     41.5312u      0.           0.           1.0000   
    4.70000n     41.3464u      0.           0.           1.0000   
    4.71000n     41.1617u      0.           0.           1.0000   
    4.72000n     40.9769u      0.           0.           1.0000   
    4.73000n     40.7922u      0.           0.           1.0000   
    4.74000n     40.6074u      0.           0.           1.0000   
    4.75000n     40.4227u      0.           0.           1.0000   
    4.76000n     40.2379u      0.           0.           1.0000   
    4.77000n     40.0532u      0.           0.           1.0000   
    4.78000n     39.8684u      0.           0.           1.0000   
    4.79000n     39.6837u      0.           0.           1.0000   
    4.80000n     39.4989u      0.           0.           1.0000   
    4.81000n     39.3142u      0.           0.           1.0000   
    4.82000n     39.1294u      0.           0.           1.0000   
    4.83000n     38.9447u      0.           0.           1.0000   
    4.84000n     38.7599u      0.           0.           1.0000   
    4.85000n     38.5751u      0.           0.           1.0000   
    4.86000n     38.3904u      0.           0.           1.0000   
    4.87000n     38.2056u      0.           0.           1.0000   
    4.88000n     38.0209u      0.           0.           1.0000   
    4.89000n     37.8361u      0.           0.           1.0000   
    4.90000n     37.6514u      0.           0.           1.0000   
    4.91000n     37.4666u      0.           0.           1.0000   
    4.92000n     37.2819u      0.           0.           1.0000   
    4.93000n     37.0971u      0.           0.           1.0000   
    4.94000n     36.9124u      0.           0.           1.0000   
    4.95000n     36.7276u      0.           0.           1.0000   
    4.96000n     36.5429u      0.           0.           1.0000   
    4.97000n     36.3581u      0.           0.           1.0000   
    4.98000n     36.1734u      0.           0.           1.0000   
    4.99000n     35.9886u      0.           0.           1.0000   
    5.00000n     12.8200m      0.           0.           0.       
    5.01000n      5.7186m      0.           0.           0.       
    5.02000n    347.2312u      0.           0.           0.       
    5.03000n     72.7378u      0.           0.           0.       
    5.04000n     73.5181u      0.           0.           0.       
    5.05000n     73.6575u      0.           0.           0.       
    5.06000n     73.6167u      0.           0.           0.       
    5.07000n     71.9398u      0.           0.           0.       
    5.08000n     70.2629u      0.           0.           0.       
    5.09000n     68.5860u      0.           0.           0.       
    5.10000n     66.9092u      0.           0.           0.       
    5.11000n     65.2323u      0.           0.           0.       
    5.12000n     64.8284u      0.           0.           0.       
    5.13000n     64.8110u      0.           0.           0.       
    5.14000n     64.7937u      0.           0.           0.       
    5.15000n     64.7763u      0.           0.           0.       
    5.16000n     64.7589u      0.           0.           0.       
    5.17000n     64.7415u      0.           0.           0.       
    5.18000n     64.7241u      0.           0.           0.       
    5.19000n     64.7067u      0.           0.           0.       
    5.20000n     64.6893u      0.           0.           0.       
    5.21000n     64.6719u      0.           0.           0.       
    5.22000n     64.6545u      0.           0.           0.       
    5.23000n     64.6371u      0.           0.           0.       
    5.24000n     64.6197u      0.           0.           0.       
    5.25000n     64.6023u      0.           0.           0.       
    5.26000n     64.5849u      0.           0.           0.       
    5.27000n     64.5675u      0.           0.           0.       
    5.28000n     64.5502u      0.           0.           0.       
    5.29000n     64.3228u      0.           0.           0.       
    5.30000n     64.0072u      0.           0.           0.       
    5.31000n     63.6916u      0.           0.           0.       
    5.32000n     63.3761u      0.           0.           0.       
    5.33000n     63.0605u      0.           0.           0.       
    5.34000n     62.7449u      0.           0.           0.       
    5.35000n     62.4294u      0.           0.           0.       
    5.36000n     62.1138u      0.           0.           0.       
    5.37000n     61.7982u      0.           0.           0.       
    5.38000n     61.4827u      0.           0.           0.       
    5.39000n     61.1671u      0.           0.           0.       
    5.40000n     60.8515u      0.           0.           0.       
    5.41000n     60.5360u      0.           0.           0.       
    5.42000n     60.2204u      0.           0.           0.       
    5.43000n     59.9048u      0.           0.           0.       
    5.44000n     59.5893u      0.           0.           0.       
    5.45000n     59.2737u      0.           0.           0.       
    5.46000n     58.9581u      0.           0.           0.       
    5.47000n     58.6426u      0.           0.           0.       
    5.48000n     58.3270u      0.           0.           0.       
    5.49000n     58.0114u      0.           0.           0.       
    5.50000n     57.6959u      0.           0.           0.       
    5.51000n     57.3803u      0.           0.           0.       
    5.52000n     57.0647u      0.           0.           0.       
    5.53000n     56.7491u      0.           0.           0.       
    5.54000n     56.4336u      0.           0.           0.       
    5.55000n     56.1180u      0.           0.           0.       
    5.56000n     55.8024u      0.           0.           0.       
    5.57000n     55.4869u      0.           0.           0.       
    5.58000n     55.1713u      0.           0.           0.       
    5.59000n     54.8557u      0.           0.           0.       
    5.60000n     54.5402u      0.           0.           0.       
    5.61000n     54.2246u      0.           0.           0.       
    5.62000n     53.9090u      0.           0.           0.       
    5.63000n     53.5935u      0.           0.           0.       
    5.64000n     53.2779u      0.           0.           0.       
    5.65000n     52.9623u      0.           0.           0.       
    5.66000n     52.6468u      0.           0.           0.       
    5.67000n     52.3312u      0.           0.           0.       
    5.68000n     52.0156u      0.           0.           0.       
    5.69000n     51.7001u      0.           0.           0.       
    5.70000n     51.3845u      0.           0.           0.       
    5.71000n     51.0689u      0.           0.           0.       
    5.72000n     50.7534u      0.           0.           0.       
    5.73000n     50.4378u      0.           0.           0.       
    5.74000n     50.1222u      0.           0.           0.       
    5.75000n     49.8067u      0.           0.           0.       
    5.76000n     49.4911u      0.           0.           0.       
    5.77000n     49.1755u      0.           0.           0.       
    5.78000n     48.8599u      0.           0.           0.       
    5.79000n     48.5444u      0.           0.           0.       
    5.80000n     48.2288u      0.           0.           0.       
    5.81000n     47.9132u      0.           0.           0.       
    5.82000n     47.5977u      0.           0.           0.       
    5.83000n     47.3149u      0.           0.           0.       
    5.84000n     47.3184u      0.           0.           0.       
    5.85000n     47.3219u      0.           0.           0.       
    5.86000n     47.3254u      0.           0.           0.       
    5.87000n     47.3288u      0.           0.           0.       
    5.88000n     47.3323u      0.           0.           0.       
    5.89000n     47.3358u      0.           0.           0.       
    5.90000n     47.3392u      0.           0.           0.       
    5.91000n     47.3427u      0.           0.           0.       
    5.92000n     47.3462u      0.           0.           0.       
    5.93000n     47.3497u      0.           0.           0.       
    5.94000n     47.3531u      0.           0.           0.       
    5.95000n     47.3566u      0.           0.           0.       
    5.96000n     47.3601u      0.           0.           0.       
    5.97000n     47.3635u      0.           0.           0.       
    5.98000n     47.3670u      0.           0.           0.       
    5.99000n     47.3705u      0.           0.           0.       
    6.00000n     47.3739u      0.           0.           0.       
    6.01000n     47.3774u      0.           0.           0.       
    6.02000n     47.3809u      0.           0.           0.       
    6.03000n     47.3844u      0.           0.           0.       
    6.04000n     47.3878u      0.           0.           0.       
    6.05000n     47.3913u      0.           0.           0.       
    6.06000n     47.3948u      0.           0.           0.       
    6.07000n     47.3982u      0.           0.           0.       
    6.08000n     47.4017u      0.           0.           0.       
    6.09000n     47.4052u      0.           0.           0.       
    6.10000n     47.4087u      0.           0.           0.       
    6.11000n     47.4121u      0.           0.           0.       
    6.12000n     47.4156u      0.           0.           0.       
    6.13000n     47.4191u      0.           0.           0.       
    6.14000n     47.4225u      0.           0.           0.       
    6.15000n     47.4260u      0.           0.           0.       
    6.16000n     47.4295u      0.           0.           0.       
    6.17000n     47.4330u      0.           0.           0.       
    6.18000n     47.4364u      0.           0.           0.       
    6.19000n     47.4399u      0.           0.           0.       
    6.20000n     47.4434u      0.           0.           0.       
    6.21000n     47.4468u      0.           0.           0.       
    6.22000n     47.4503u      0.           0.           0.       
    6.23000n     47.4538u      0.           0.           0.       
    6.24000n     47.4572u      0.           0.           0.       
    6.25000n     47.4607u      0.           0.           0.       
    6.26000n     47.4642u      0.           0.           0.       
    6.27000n     47.4677u      0.           0.           0.       
    6.28000n     47.4711u      0.           0.           0.       
    6.29000n     47.4746u      0.           0.           0.       
    6.30000n     47.4781u      0.           0.           0.       
    6.31000n     47.4815u      0.           0.           0.       
    6.32000n     47.4850u      0.           0.           0.       
    6.33000n     47.4885u      0.           0.           0.       
    6.34000n     47.4920u      0.           0.           0.       
    6.35000n     47.4954u      0.           0.           0.       
    6.36000n     47.4989u      0.           0.           0.       
    6.37000n     47.5024u      0.           0.           0.       
    6.38000n     47.5058u      0.           0.           0.       
    6.39000n     47.5093u      0.           0.           0.       
    6.40000n     47.5128u      0.           0.           0.       
    6.41000n     47.5163u      0.           0.           0.       
    6.42000n     47.5197u      0.           0.           0.       
    6.43000n     47.5232u      0.           0.           0.       
    6.44000n     47.5267u      0.           0.           0.       
    6.45000n     47.5301u      0.           0.           0.       
    6.46000n     47.5336u      0.           0.           0.       
    6.47000n     47.5371u      0.           0.           0.       
    6.48000n     47.5405u      0.           0.           0.       
    6.49000n     47.5440u      0.           0.           0.       
    6.50000n     47.5475u      0.           0.           0.       
    6.51000n     47.5510u      0.           0.           0.       
    6.52000n     47.5544u      0.           0.           0.       
    6.53000n     47.5579u      0.           0.           0.       
    6.54000n     47.5614u      0.           0.           0.       
    6.55000n     47.5648u      0.           0.           0.       
    6.56000n     47.5683u      0.           0.           0.       
    6.57000n     47.5718u      0.           0.           0.       
    6.58000n     47.5753u      0.           0.           0.       
    6.59000n     47.5787u      0.           0.           0.       
    6.60000n     47.5822u      0.           0.           0.       
    6.61000n     47.5857u      0.           0.           0.       
    6.62000n     47.5891u      0.           0.           0.       
    6.63000n     47.5926u      0.           0.           0.       
    6.64000n     47.5961u      0.           0.           0.       
    6.65000n     47.5996u      0.           0.           0.       
    6.66000n     47.6030u      0.           0.           0.       
    6.67000n     47.6065u      0.           0.           0.       
    6.68000n     47.6100u      0.           0.           0.       
    6.69000n     47.6134u      0.           0.           0.       
    6.70000n     47.6169u      0.           0.           0.       
    6.71000n     47.6204u      0.           0.           0.       
    6.72000n     47.6238u      0.           0.           0.       
    6.73000n     47.6273u      0.           0.           0.       
    6.74000n     47.6308u      0.           0.           0.       
    6.75000n     47.6343u      0.           0.           0.       
    6.76000n     47.6377u      0.           0.           0.       
    6.77000n     47.6412u      0.           0.           0.       
    6.78000n     47.6447u      0.           0.           0.       
    6.79000n     47.6481u      0.           0.           0.       
    6.80000n     47.6516u      0.           0.           0.       
    6.81000n     47.6551u      0.           0.           0.       
    6.82000n     47.6586u      0.           0.           0.       
    6.83000n     47.6620u      0.           0.           0.       
    6.84000n     47.6655u      0.           0.           0.       
    6.85000n     47.6690u      0.           0.           0.       
    6.86000n     47.6724u      0.           0.           0.       
    6.87000n     47.6759u      0.           0.           0.       
    6.88000n     47.6794u      0.           0.           0.       
    6.89000n     47.6829u      0.           0.           0.       
    6.90000n     47.6863u      0.           0.           0.       
    6.91000n     47.6898u      0.           0.           0.       
    6.92000n     47.6933u      0.           0.           0.       
    6.93000n     47.6967u      0.           0.           0.       
    6.94000n     47.7002u      0.           0.           0.       
    6.95000n     47.7037u      0.           0.           0.       
    6.96000n     47.7072u      0.           0.           0.       
    6.97000n     47.7106u      0.           0.           0.       
    6.98000n     47.7141u      0.           0.           0.       
    6.99000n     47.7176u      0.           0.           0.       
    7.00000n     47.7210u      0.           0.           0.       
    7.01000n     47.7245u      0.           0.           0.       
    7.02000n     47.7280u      0.           0.           0.       
    7.03000n     47.7314u      0.           0.           0.       
    7.04000n     47.7349u      0.           0.           0.       
    7.05000n     47.7384u      0.           0.           0.       
    7.06000n     47.7419u      0.           0.           0.       
    7.07000n     47.7453u      0.           0.           0.       
    7.08000n     47.7488u      0.           0.           0.       
    7.09000n     47.7523u      0.           0.           0.       
    7.10000n     47.7557u      0.           0.           0.       
    7.11000n     47.7592u      0.           0.           0.       
    7.12000n     47.7627u      0.           0.           0.       
    7.13000n     47.7662u      0.           0.           0.       
    7.14000n     47.7696u      0.           0.           0.       
    7.15000n     47.7731u      0.           0.           0.       
    7.16000n     47.7766u      0.           0.           0.       
    7.17000n     47.7800u      0.           0.           0.       
    7.18000n     47.7835u      0.           0.           0.       
    7.19000n     47.7870u      0.           0.           0.       
    7.20000n     47.7905u      0.           0.           0.       
    7.21000n     47.7939u      0.           0.           0.       
    7.22000n     47.7974u      0.           0.           0.       
    7.23000n     47.5601u      0.           0.           0.       
    7.24000n     47.3195u      0.           0.           0.       
    7.25000n     47.0788u      0.           0.           0.       
    7.26000n     46.8381u      0.           0.           0.       
    7.27000n     46.5975u      0.           0.           0.       
    7.28000n     46.3568u      0.           0.           0.       
    7.29000n     46.1161u      0.           0.           0.       
    7.30000n     45.8755u      0.           0.           0.       
    7.31000n     45.6348u      0.           0.           0.       
    7.32000n     45.3942u      0.           0.           0.       
    7.33000n     45.1535u      0.           0.           0.       
    7.34000n     44.9128u      0.           0.           0.       
    7.35000n     44.6722u      0.           0.           0.       
    7.36000n     44.4315u      0.           0.           0.       
    7.37000n     44.1909u      0.           0.           0.       
    7.38000n     43.9502u      0.           0.           0.       
    7.39000n     43.7095u      0.           0.           0.       
    7.40000n     43.4689u      0.           0.           0.       
    7.41000n     43.2282u      0.           0.           0.       
    7.42000n     42.9875u      0.           0.           0.       
    7.43000n     42.7469u      0.           0.           0.       
    7.44000n     42.5062u      0.           0.           0.       
    7.45000n     42.2656u      0.           0.           0.       
    7.46000n     42.0249u      0.           0.           0.       
    7.47000n     41.7842u      0.           0.           0.       
    7.48000n     41.5436u      0.           0.           0.       
    7.49000n     41.3029u      0.           0.           0.       
    7.50000n    -33.4262m      0.           1.0000       0.       
    7.51000n     -3.2679m      0.           1.0000       0.       
    7.52000n    258.5000u      0.           1.0000       0.       
    7.53000n    357.2003u      0.           1.0000       0.       
    7.54000n    342.6816u      0.           1.0000       0.       
    7.55000n    334.2425u      0.           1.0000       0.       
    7.56000n    340.7146u      0.           1.0000       0.       
    7.57000n    347.1867u      0.           1.0000       0.       
    7.58000n    353.6588u      0.           1.0000       0.       
    7.59000n    356.3165u      0.           1.0000       0.       
    7.60000n    355.1042u      0.           1.0000       0.       
    7.61000n    353.8920u      0.           1.0000       0.       
    7.62000n    352.6798u      0.           1.0000       0.       
    7.63000n    351.4675u      0.           1.0000       0.       
    7.64000n    350.2553u      0.           1.0000       0.       
    7.65000n    349.0430u      0.           1.0000       0.       
    7.66000n    347.8308u      0.           1.0000       0.       
    7.67000n    346.6186u      0.           1.0000       0.       
    7.68000n    345.4063u      0.           1.0000       0.       
    7.69000n    344.1941u      0.           1.0000       0.       
    7.70000n    342.9818u      0.           1.0000       0.       
    7.71000n    342.3092u      0.           1.0000       0.       
    7.72000n    342.6043u      0.           1.0000       0.       
    7.73000n    342.8993u      0.           1.0000       0.       
    7.74000n    343.1943u      0.           1.0000       0.       
    7.75000n    343.4894u      0.           1.0000       0.       
    7.76000n    343.7844u      0.           1.0000       0.       
    7.77000n    344.0794u      0.           1.0000       0.       
    7.78000n    344.3745u      0.           1.0000       0.       
    7.79000n    344.6695u      0.           1.0000       0.       
    7.80000n    344.9646u      0.           1.0000       0.       
    7.81000n    345.2596u      0.           1.0000       0.       
    7.82000n    345.5546u      0.           1.0000       0.       
    7.83000n    345.8497u      0.           1.0000       0.       
    7.84000n    346.1447u      0.           1.0000       0.       
    7.85000n    346.4397u      0.           1.0000       0.       
    7.86000n    346.7348u      0.           1.0000       0.       
    7.87000n    347.0298u      0.           1.0000       0.       
    7.88000n    347.3248u      0.           1.0000       0.       
    7.89000n    347.6199u      0.           1.0000       0.       
    7.90000n    347.9149u      0.           1.0000       0.       
    7.91000n    348.2100u      0.           1.0000       0.       
    7.92000n    348.5050u      0.           1.0000       0.       
    7.93000n    348.8000u      0.           1.0000       0.       
    7.94000n    349.0951u      0.           1.0000       0.       
    7.95000n    349.3901u      0.           1.0000       0.       
    7.96000n    349.6851u      0.           1.0000       0.       
    7.97000n    349.9802u      0.           1.0000       0.       
    7.98000n    350.2752u      0.           1.0000       0.       
    7.99000n    350.5703u      0.           1.0000       0.       
    8.00000n    350.8653u      0.           1.0000       0.       
    8.01000n    351.1603u      0.           1.0000       0.       
    8.02000n    351.4554u      0.           1.0000       0.       
    8.03000n    351.7504u      0.           1.0000       0.       
    8.04000n    352.0454u      0.           1.0000       0.       
    8.05000n    352.3405u      0.           1.0000       0.       
    8.06000n    352.6355u      0.           1.0000       0.       
    8.07000n    352.9306u      0.           1.0000       0.       
    8.08000n    353.2256u      0.           1.0000       0.       
    8.09000n    353.5206u      0.           1.0000       0.       
    8.10000n    353.6193u      0.           1.0000       0.       
    8.11000n    353.5333u      0.           1.0000       0.       
    8.12000n    353.4473u      0.           1.0000       0.       
    8.13000n    353.3613u      0.           1.0000       0.       
    8.14000n    353.2753u      0.           1.0000       0.       
    8.15000n    353.1892u      0.           1.0000       0.       
    8.16000n    353.1032u      0.           1.0000       0.       
    8.17000n    353.0172u      0.           1.0000       0.       
    8.18000n    352.9312u      0.           1.0000       0.       
    8.19000n    352.8452u      0.           1.0000       0.       
    8.20000n    352.7591u      0.           1.0000       0.       
    8.21000n    352.6731u      0.           1.0000       0.       
    8.22000n    352.5871u      0.           1.0000       0.       
    8.23000n    352.5011u      0.           1.0000       0.       
    8.24000n    352.4151u      0.           1.0000       0.       
    8.25000n    352.3290u      0.           1.0000       0.       
    8.26000n    352.2430u      0.           1.0000       0.       
    8.27000n    352.1570u      0.           1.0000       0.       
    8.28000n    352.0710u      0.           1.0000       0.       
    8.29000n    351.9850u      0.           1.0000       0.       
    8.30000n    351.8989u      0.           1.0000       0.       
    8.31000n    351.8129u      0.           1.0000       0.       
    8.32000n    351.7269u      0.           1.0000       0.       
    8.33000n    351.6409u      0.           1.0000       0.       
    8.34000n    351.5549u      0.           1.0000       0.       
    8.35000n    351.4688u      0.           1.0000       0.       
    8.36000n    351.3828u      0.           1.0000       0.       
    8.37000n    351.2968u      0.           1.0000       0.       
    8.38000n    351.2108u      0.           1.0000       0.       
    8.39000n    351.1248u      0.           1.0000       0.       
    8.40000n    351.0387u      0.           1.0000       0.       
    8.41000n    350.9527u      0.           1.0000       0.       
    8.42000n    350.8667u      0.           1.0000       0.       
    8.43000n    350.7807u      0.           1.0000       0.       
    8.44000n    350.6947u      0.           1.0000       0.       
    8.45000n    350.6086u      0.           1.0000       0.       
    8.46000n    350.5226u      0.           1.0000       0.       
    8.47000n    350.4366u      0.           1.0000       0.       
    8.48000n    350.3506u      0.           1.0000       0.       
    8.49000n    350.2646u      0.           1.0000       0.       
    8.50000n    350.1785u      0.           1.0000       0.       
    8.51000n    350.0925u      0.           1.0000       0.       
    8.52000n    350.0065u      0.           1.0000       0.       
    8.53000n    349.9205u      0.           1.0000       0.       
    8.54000n    349.8345u      0.           1.0000       0.       
    8.55000n    349.7485u      0.           1.0000       0.       
    8.56000n    349.6624u      0.           1.0000       0.       
    8.57000n    349.5764u      0.           1.0000       0.       
    8.58000n    349.4904u      0.           1.0000       0.       
    8.59000n    349.4044u      0.           1.0000       0.       
    8.60000n    349.3184u      0.           1.0000       0.       
    8.61000n    349.2323u      0.           1.0000       0.       
    8.62000n    349.1463u      0.           1.0000       0.       
    8.63000n    349.0603u      0.           1.0000       0.       
    8.64000n    348.9743u      0.           1.0000       0.       
    8.65000n    348.8883u      0.           1.0000       0.       
    8.66000n    348.8022u      0.           1.0000       0.       
    8.67000n    348.7162u      0.           1.0000       0.       
    8.68000n    348.6302u      0.           1.0000       0.       
    8.69000n    348.5442u      0.           1.0000       0.       
    8.70000n    348.4582u      0.           1.0000       0.       
    8.71000n    348.3721u      0.           1.0000       0.       
    8.72000n    348.2861u      0.           1.0000       0.       
    8.73000n    348.2001u      0.           1.0000       0.       
    8.74000n    348.1141u      0.           1.0000       0.       
    8.75000n    348.0281u      0.           1.0000       0.       
    8.76000n    347.9420u      0.           1.0000       0.       
    8.77000n    347.8560u      0.           1.0000       0.       
    8.78000n    347.7700u      0.           1.0000       0.       
    8.79000n    347.6840u      0.           1.0000       0.       
    8.80000n    347.5980u      0.           1.0000       0.       
    8.81000n    347.5119u      0.           1.0000       0.       
    8.82000n    347.4259u      0.           1.0000       0.       
    8.83000n    347.3399u      0.           1.0000       0.       
    8.84000n    347.2539u      0.           1.0000       0.       
    8.85000n    347.1679u      0.           1.0000       0.       
    8.86000n    347.0818u      0.           1.0000       0.       
    8.87000n    346.9958u      0.           1.0000       0.       
    8.88000n    346.9098u      0.           1.0000       0.       
    8.89000n    346.8238u      0.           1.0000       0.       
    8.90000n    346.7378u      0.           1.0000       0.       
    8.91000n    346.6517u      0.           1.0000       0.       
    8.92000n    346.5657u      0.           1.0000       0.       
    8.93000n    346.4797u      0.           1.0000       0.       
    8.94000n    346.3937u      0.           1.0000       0.       
    8.95000n    346.3077u      0.           1.0000       0.       
    8.96000n    346.2216u      0.           1.0000       0.       
    8.97000n    346.1356u      0.           1.0000       0.       
    8.98000n    346.0496u      0.           1.0000       0.       
    8.99000n    345.9636u      0.           1.0000       0.       
    9.00000n    345.8776u      0.           1.0000       0.       
    9.01000n    345.7915u      0.           1.0000       0.       
    9.02000n    345.7055u      0.           1.0000       0.       
    9.03000n    345.6195u      0.           1.0000       0.       
    9.04000n    345.5335u      0.           1.0000       0.       
    9.05000n    345.4475u      0.           1.0000       0.       
    9.06000n    345.3614u      0.           1.0000       0.       
    9.07000n    345.2754u      0.           1.0000       0.       
    9.08000n    345.1894u      0.           1.0000       0.       
    9.09000n    345.1034u      0.           1.0000       0.       
    9.10000n    345.0174u      0.           1.0000       0.       
    9.11000n    344.9313u      0.           1.0000       0.       
    9.12000n    344.8453u      0.           1.0000       0.       
    9.13000n    344.7593u      0.           1.0000       0.       
    9.14000n    344.6733u      0.           1.0000       0.       
    9.15000n    344.5873u      0.           1.0000       0.       
    9.16000n    344.5012u      0.           1.0000       0.       
    9.17000n    344.4152u      0.           1.0000       0.       
    9.18000n    344.3292u      0.           1.0000       0.       
[...]
  167.29000n    341.7161u      0.           1.0000       0.       
  167.30000n    341.7161u      0.           1.0000       0.       
  167.31000n    341.7161u      0.           1.0000       0.       
  167.32000n    341.7161u      0.           1.0000       0.       
  167.33000n    341.7161u      0.           1.0000       0.       
  167.34000n    341.7161u      0.           1.0000       0.       
  167.35000n    341.7161u      0.           1.0000       0.       
  167.36000n    341.7161u      0.           1.0000       0.       
  167.37000n    341.7161u      0.           1.0000       0.       
  167.38000n    341.7161u      0.           1.0000       0.       
  167.39000n    341.7161u      0.           1.0000       0.       
  167.40000n    341.7160u      0.           1.0000       0.       
  167.41000n    341.7160u      0.           1.0000       0.       
  167.42000n    341.7160u      0.           1.0000       0.       
  167.43000n    341.7160u      0.           1.0000       0.       
  167.44000n    341.7160u      0.           1.0000       0.       
  167.45000n    341.7160u      0.           1.0000       0.       
  167.46000n    341.7160u      0.           1.0000       0.       
  167.47000n    341.7160u      0.           1.0000       0.       
  167.48000n    341.7160u      0.           1.0000       0.       
  167.49000n    341.7160u      0.           1.0000       0.       
  167.50000n    341.7160u      0.           1.0000       0.       
  167.51000n    341.7160u      0.           1.0000       0.       
  167.52000n    341.7159u      0.           1.0000       0.       
  167.53000n    341.7159u      0.           1.0000       0.       
  167.54000n    341.7159u      0.           1.0000       0.       
  167.55000n    341.7159u      0.           1.0000       0.       
  167.56000n    341.7159u      0.           1.0000       0.       
  167.57000n    341.7159u      0.           1.0000       0.       
  167.58000n    341.7159u      0.           1.0000       0.       
  167.59000n    341.7159u      0.           1.0000       0.       
  167.60000n    341.7159u      0.           1.0000       0.       
  167.61000n    341.7159u      0.           1.0000       0.       
  167.62000n    341.7159u      0.           1.0000       0.       
  167.63000n    341.7158u      0.           1.0000       0.       
  167.64000n    341.7158u      0.           1.0000       0.       
  167.65000n    341.7158u      0.           1.0000       0.       
  167.66000n    341.7158u      0.           1.0000       0.       
  167.67000n    341.7158u      0.           1.0000       0.       
  167.68000n    341.7158u      0.           1.0000       0.       
  167.69000n    341.7158u      0.           1.0000       0.       
  167.70000n    341.7158u      0.           1.0000       0.       
  167.71000n    341.7158u      0.           1.0000       0.       
  167.72000n    341.7158u      0.           1.0000       0.       
  167.73000n    341.7158u      0.           1.0000       0.       
  167.74000n    341.7158u      0.           1.0000       0.       
  167.75000n    341.7157u      0.           1.0000       0.       
  167.76000n    341.7157u      0.           1.0000       0.       
  167.77000n    341.7157u      0.           1.0000       0.       
  167.78000n    341.7157u      0.           1.0000       0.       
  167.79000n    341.7157u      0.           1.0000       0.       
  167.80000n    341.7157u      0.           1.0000       0.       
  167.81000n    341.7157u      0.           1.0000       0.       
  167.82000n    341.7157u      0.           1.0000       0.       
  167.83000n    341.7157u      0.           1.0000       0.       
  167.84000n    341.7157u      0.           1.0000       0.       
  167.85000n    341.7157u      0.           1.0000       0.       
  167.86000n    341.7156u      0.           1.0000       0.       
  167.87000n    341.7156u      0.           1.0000       0.       
  167.88000n    341.7156u      0.           1.0000       0.       
  167.89000n    341.7156u      0.           1.0000       0.       
  167.90000n    341.7156u      0.           1.0000       0.       
  167.91000n    341.7156u      0.           1.0000       0.       
  167.92000n    341.7156u      0.           1.0000       0.       
  167.93000n    341.7156u      0.           1.0000       0.       
  167.94000n    341.7156u      0.           1.0000       0.       
  167.95000n    341.7156u      0.           1.0000       0.       
  167.96000n    341.7156u      0.           1.0000       0.       
  167.97000n    341.7156u      0.           1.0000       0.       
  167.98000n    341.7155u      0.           1.0000       0.       
  167.99000n    341.7155u      0.           1.0000       0.       
  168.00000n    341.7155u      0.           1.0000       0.       
  168.01000n    341.7155u      0.           1.0000       0.       
  168.02000n    341.7155u      0.           1.0000       0.       
  168.03000n    341.7155u      0.           1.0000       0.       
  168.04000n    341.7155u      0.           1.0000       0.       
  168.05000n    341.7155u      0.           1.0000       0.       
  168.06000n    341.7155u      0.           1.0000       0.       
  168.07000n    341.7155u      0.           1.0000       0.       
  168.08000n    341.7155u      0.           1.0000       0.       
  168.09000n    341.7154u      0.           1.0000       0.       
  168.10000n    341.7154u      0.           1.0000       0.       
  168.11000n    341.7154u      0.           1.0000       0.       
  168.12000n    341.7154u      0.           1.0000       0.       
  168.13000n    341.7154u      0.           1.0000       0.       
  168.14000n    341.7154u      0.           1.0000       0.       
  168.15000n    341.7154u      0.           1.0000       0.       
  168.16000n    341.7154u      0.           1.0000       0.       
  168.17000n    341.7154u      0.           1.0000       0.       
  168.18000n    341.7154u      0.           1.0000       0.       
  168.19000n    341.7154u      0.           1.0000       0.       
  168.20000n    341.7154u      0.           1.0000       0.       
  168.21000n    341.7153u      0.           1.0000       0.       
  168.22000n    341.7153u      0.           1.0000       0.       
  168.23000n    341.7153u      0.           1.0000       0.       
  168.24000n    341.7153u      0.           1.0000       0.       
  168.25000n    341.7153u      0.           1.0000       0.       
  168.26000n    341.7153u      0.           1.0000       0.       
  168.27000n    341.7153u      0.           1.0000       0.       
  168.28000n    341.7153u      0.           1.0000       0.       
  168.29000n    341.7153u      0.           1.0000       0.       
  168.30000n    341.7153u      0.           1.0000       0.       
  168.31000n    341.7153u      0.           1.0000       0.       
  168.32000n    341.7152u      0.           1.0000       0.       
  168.33000n    341.7152u      0.           1.0000       0.       
  168.34000n    341.7152u      0.           1.0000       0.       
  168.35000n    341.7152u      0.           1.0000       0.       
  168.36000n    341.7152u      0.           1.0000       0.       
  168.37000n    341.7152u      0.           1.0000       0.       
  168.38000n    341.7152u      0.           1.0000       0.       
  168.39000n    341.7152u      0.           1.0000       0.       
  168.40000n    341.7152u      0.           1.0000       0.       
  168.41000n    341.7152u      0.           1.0000       0.       
  168.42000n    341.7152u      0.           1.0000       0.       
  168.43000n    341.7152u      0.           1.0000       0.       
  168.44000n    341.7151u      0.           1.0000       0.       
  168.45000n    341.7151u      0.           1.0000       0.       
  168.46000n    341.7151u      0.           1.0000       0.       
  168.47000n    341.7151u      0.           1.0000       0.       
  168.48000n    341.7151u      0.           1.0000       0.       
  168.49000n    341.7151u      0.           1.0000       0.       
  168.50000n    341.7151u      0.           1.0000       0.       
  168.51000n    341.7151u      0.           1.0000       0.       
  168.52000n    341.7151u      0.           1.0000       0.       
  168.53000n    341.7151u      0.           1.0000       0.       
  168.54000n    341.7151u      0.           1.0000       0.       
  168.55000n    341.7150u      0.           1.0000       0.       
  168.56000n    341.7150u      0.           1.0000       0.       
  168.57000n    341.7150u      0.           1.0000       0.       
  168.58000n    341.7150u      0.           1.0000       0.       
  168.59000n    341.7150u      0.           1.0000       0.       
  168.60000n    341.7150u      0.           1.0000       0.       
  168.61000n    341.7150u      0.           1.0000       0.       
  168.62000n    341.7150u      0.           1.0000       0.       
  168.63000n    341.7150u      0.           1.0000       0.       
  168.64000n    341.7150u      0.           1.0000       0.       
  168.65000n    341.7150u      0.           1.0000       0.       
  168.66000n    341.7150u      0.           1.0000       0.       
  168.67000n    341.7149u      0.           1.0000       0.       
  168.68000n    341.7149u      0.           1.0000       0.       
  168.69000n    341.7149u      0.           1.0000       0.       
  168.70000n    341.7149u      0.           1.0000       0.       
  168.71000n    341.7149u      0.           1.0000       0.       
  168.72000n    341.7149u      0.           1.0000       0.       
  168.73000n    341.7149u      0.           1.0000       0.       
  168.74000n    341.7149u      0.           1.0000       0.       
  168.75000n    341.7149u      0.           1.0000       0.       
  168.76000n    341.7149u      0.           1.0000       0.       
  168.77000n    341.7149u      0.           1.0000       0.       
  168.78000n    341.7149u      0.           1.0000       0.       
  168.79000n    341.7148u      0.           1.0000       0.       
  168.80000n    341.7148u      0.           1.0000       0.       
  168.81000n    341.7148u      0.           1.0000       0.       
  168.82000n    341.7148u      0.           1.0000       0.       
  168.83000n    341.7148u      0.           1.0000       0.       
  168.84000n    341.7148u      0.           1.0000       0.       
  168.85000n    341.7148u      0.           1.0000       0.       
  168.86000n    341.7148u      0.           1.0000       0.       
  168.87000n    341.7148u      0.           1.0000       0.       
  168.88000n    341.7148u      0.           1.0000       0.       
  168.89000n    341.7148u      0.           1.0000       0.       
  168.90000n    341.7147u      0.           1.0000       0.       
  168.91000n    341.7147u      0.           1.0000       0.       
  168.92000n    341.7147u      0.           1.0000       0.       
  168.93000n    341.7147u      0.           1.0000       0.       
  168.94000n    341.7147u      0.           1.0000       0.       
  168.95000n    341.7147u      0.           1.0000       0.       
  168.96000n    341.7147u      0.           1.0000       0.       
  168.97000n    341.7147u      0.           1.0000       0.       
  168.98000n    341.7147u      0.           1.0000       0.       
  168.99000n    341.7147u      0.           1.0000       0.       
  169.00000n    341.7147u      0.           1.0000       0.       
  169.01000n    341.7147u      0.           1.0000       0.       
  169.02000n    341.7146u      0.           1.0000       0.       
  169.03000n    341.7146u      0.           1.0000       0.       
  169.04000n    341.7146u      0.           1.0000       0.       
  169.05000n    341.7146u      0.           1.0000       0.       
  169.06000n    341.7146u      0.           1.0000       0.       
  169.07000n    341.7146u      0.           1.0000       0.       
  169.08000n    341.7146u      0.           1.0000       0.       
  169.09000n    341.7146u      0.           1.0000       0.       
  169.10000n    341.7146u      0.           1.0000       0.       
  169.11000n    341.7146u      0.           1.0000       0.       
  169.12000n    341.7146u      0.           1.0000       0.       
  169.13000n    341.7145u      0.           1.0000       0.       
  169.14000n    341.7145u      0.           1.0000       0.       
  169.15000n    341.7145u      0.           1.0000       0.       
  169.16000n    341.7145u      0.           1.0000       0.       
  169.17000n    341.7145u      0.           1.0000       0.       
  169.18000n    341.7145u      0.           1.0000       0.       
  169.19000n    341.7145u      0.           1.0000       0.       
  169.20000n    341.7145u      0.           1.0000       0.       
  169.21000n    341.7145u      0.           1.0000       0.       
  169.22000n    341.7145u      0.           1.0000       0.       
  169.23000n    341.7145u      0.           1.0000       0.       
  169.24000n    341.7145u      0.           1.0000       0.       
  169.25000n    341.7144u      0.           1.0000       0.       
  169.26000n    341.7144u      0.           1.0000       0.       
  169.27000n    341.7144u      0.           1.0000       0.       
  169.28000n    341.7144u      0.           1.0000       0.       
  169.29000n    341.7144u      0.           1.0000       0.       
  169.30000n    341.7144u      0.           1.0000       0.       
  169.31000n    341.7144u      0.           1.0000       0.       
  169.32000n    341.7144u      0.           1.0000       0.       
  169.33000n    341.7144u      0.           1.0000       0.       
  169.34000n    341.7144u      0.           1.0000       0.       
  169.35000n    341.7144u      0.           1.0000       0.       
  169.36000n    341.7143u      0.           1.0000       0.       
  169.37000n    341.7143u      0.           1.0000       0.       
  169.38000n    341.7143u      0.           1.0000       0.       
  169.39000n    341.7143u      0.           1.0000       0.       
  169.40000n    341.7143u      0.           1.0000       0.       
  169.41000n    341.7143u      0.           1.0000       0.       
  169.42000n    341.7143u      0.           1.0000       0.       
  169.43000n    341.7143u      0.           1.0000       0.       
  169.44000n    341.7143u      0.           1.0000       0.       
  169.45000n    341.7143u      0.           1.0000       0.       
  169.46000n    341.7143u      0.           1.0000       0.       
  169.47000n    341.7143u      0.           1.0000       0.       
  169.48000n    341.7142u      0.           1.0000       0.       
  169.49000n    341.7142u      0.           1.0000       0.       
  169.50000n    341.7142u      0.           1.0000       0.       
  169.51000n    341.7142u      0.           1.0000       0.       
  169.52000n    341.7142u      0.           1.0000       0.       
  169.53000n    341.7142u      0.           1.0000       0.       
  169.54000n    341.7142u      0.           1.0000       0.       
  169.55000n    341.7142u      0.           1.0000       0.       
  169.56000n    341.7142u      0.           1.0000       0.       
  169.57000n    341.7142u      0.           1.0000       0.       
  169.58000n    341.7142u      0.           1.0000       0.       
  169.59000n    341.7141u      0.           1.0000       0.       
  169.60000n    341.7141u      0.           1.0000       0.       
  169.61000n    341.7141u      0.           1.0000       0.       
  169.62000n    341.7141u      0.           1.0000       0.       
  169.63000n    341.7141u      0.           1.0000       0.       
  169.64000n    341.7141u      0.           1.0000       0.       
  169.65000n    341.7141u      0.           1.0000       0.       
  169.66000n    341.7141u      0.           1.0000       0.       
  169.67000n    341.7141u      0.           1.0000       0.       
  169.68000n    341.7141u      0.           1.0000       0.       
  169.69000n    341.7141u      0.           1.0000       0.       
  169.70000n    341.7141u      0.           1.0000       0.       
  169.71000n    341.7140u      0.           1.0000       0.       
  169.72000n    341.7140u      0.           1.0000       0.       
  169.73000n    341.7140u      0.           1.0000       0.       
  169.74000n    341.7140u      0.           1.0000       0.       
  169.75000n    341.7140u      0.           1.0000       0.       
  169.76000n    341.7140u      0.           1.0000       0.       
  169.77000n    341.7140u      0.           1.0000       0.       
  169.78000n    341.7140u      0.           1.0000       0.       
  169.79000n    341.7140u      0.           1.0000       0.       
  169.80000n    341.7140u      0.           1.0000       0.       
  169.81000n    341.7140u      0.           1.0000       0.       
  169.82000n    341.7139u      0.           1.0000       0.       
  169.83000n    341.7139u      0.           1.0000       0.       
  169.84000n    341.7139u      0.           1.0000       0.       
  169.85000n    341.7139u      0.           1.0000       0.       
  169.86000n    341.7139u      0.           1.0000       0.       
  169.87000n    341.7139u      0.           1.0000       0.       
  169.88000n    341.7139u      0.           1.0000       0.       
  169.89000n    341.7139u      0.           1.0000       0.       
  169.90000n    341.7139u      0.           1.0000       0.       
  169.91000n    341.7139u      0.           1.0000       0.       
  169.92000n    341.7139u      0.           1.0000       0.       
  169.93000n    341.7139u      0.           1.0000       0.       
  169.94000n    341.7138u      0.           1.0000       0.       
  169.95000n    341.7138u      0.           1.0000       0.       
  169.96000n    341.7138u      0.           1.0000       0.       
  169.97000n    341.7138u      0.           1.0000       0.       
  169.98000n    341.7138u      0.           1.0000       0.       
  169.99000n    341.7138u      0.           1.0000       0.       
  170.00000n    341.7138u      0.           1.0000       0.       
y

          ***** job concluded
1****** HSPICE -- D-2010.03-SP1 32-BIT (May 26 2010) winnt ******               
 ******  
 first line of the netlist must be blank.

  ******  job statistics summary tnom=  25.000 temp=  25.000 *****

  ******  HSPICE Threads Information  ******

  Command Line Threads Count                  :     1
  Available CPU Count                         :     4
  Actual Model Evaluation(Load) Threads Count :     1
  Actual Solver Threads Count                 :     1


  ******  Circuit Statistics  ******
  # nodes       =      68 # elements   =      18
  # resistors   =       0 # capacitors =       0 # inductors   =       0
  # mutual_inds =       0 # vccs       =       0 # vcvs        =       0
  # cccs        =       0 # ccvs       =       0 # volt_srcs   =       4
  # curr_srcs   =       0 # diodes     =       0 # bjts        =       0
  # jfets       =       0 # mosfets    =      14 # U elements  =       0
  # T elements  =       0 # W elements =       0 # B elements  =       0
  # S elements  =       0 # P elements =       0 # va device   =       0


  ******  Runtime Statistics (seconds)  ******

  analysis           time    # points   tot. iter  conv.iter
  op point           0.01           1          10
  transient          0.35       17001        3722        1275 rev=        56
  readin             0.07
  errchk             0.02
  setup              0.02
  output             0.04


           total memory used          345  kbytes
           total cpu time            0.52 seconds
           total elapsed time        0.58 seconds
           job started at     15:07:56 12/31/2014
           job ended   at     15:07:57 12/31/2014


  lic: Release hspice token(s) 
