 ****** HSPICE -- D-2010.03-SP1 32-BIT (May 26 2010) winnt ******               
  Copyright (C) 2010 Synopsys, Inc. All Rights Reserved.                        
  Unpublished-rights reserved under US copyright laws.
  This program is protected by law and is subject to the 
  terms and conditions of the license agreement from Synopsys.
  Use of this program is your acceptance to be bound by the 
  license agreement. HSPICE is the trademark of Synopsys, Inc.
  Input File: d:\digital electronic\projects\ca_1\question_1_part_g_capacitance_
  lic:  
  lic: FLEXlm: v8.5b 
  lic: USER:   HP                   HOSTNAME: ProBook 
  lic: HOSTID: "00090faa0001 56db30007c95 16db30007c95 a4db30007c95 a45d36cb5ab9
  
  lic: Using FLEXlm license file: 
  lic: 27000@elena 
  lic: Checkout 1 hspice 
  lic: License/Maintenance for hspice will expire on 31-dec-2020/2007.9 
  lic: NODE LOCKED license on hostid "00090faa0001 56db30007c95 16db30007c95 a4d
 b
  lic:   
 Init: read install configuration file: C:\synopsys\Hspice_D-2010.03-SP1\meta.cfg
1****** HSPICE -- D-2010.03-SP1 32-BIT (May 26 2010) winnt ******               
 ******  
 first line of the netlist must be blank.

  ******  mos   model parameters tnom=  25.000 temp=  25.000 *****
 
Model Name: nmos  

 BSIM4 Model (Level 54)

    MOBMOD = 0
    BINUNIT = 1
    PARAMCHK = 1
    CAPMOD = 2
    DIOMOD = 1
    RDSMOD = 0
    TRNQSMOD = 0
    ACNQSMOD = 0
    RBODYMOD = 1
    RGATEMOD = 1
    PERMOD = 1
    GEOMOD = 1
    RGEOMOD = 0
    FNOIMOD = 1
    TNOIMOD = 0
    IGCMOD = 1
    IGBMOD = 1
    STIMOD = 0
    VERSION =      4 
    TOXREF = 1.75e-009 
    TOXE = 1.75e-009 
    TOXP = 1.1e-009 
    TOXM = 1.75e-009 
    DTOX = 6.5e-010 
    EPSROX =    3.9 
    CDSC =      0 
    CDSCB =      0 
    CDSCD =      0 
    CIT =      0 
    NFACTOR =    2.1 
    XJ = 1.4e-008 
    VSAT = 1.474e+005 
    A0 =      1 
    AGS = 1e-020 
    A1 =      0 
    A2 =      1 
    AT = 3.3e+004 
    KETA =   0.04 
    NSUB = 6e+016 
    NDEP = 3.28e+018 
    NSD = 2e+020 
    NGATE = 2e+020 
    GAMMA1 =      0 
    GAMMA2 =      0 
    VBX =      0 
    VBM =     -3 
    XT = 1.55e-007 
    K1 =  0.528 
    KT1 =  -0.11 
    KT1L =      0 
    KT2 =  0.022 
    K2 =   0.01 
    K3 =      0 
    K3B =      0 
    LPE0 =      0 
    LPEB =      0 
    DVTP0 = 1e-009 
    DVTP1 =    0.1 
    W0 = 2.5e-006 
    DVT0 =      1 
    DVT1 =      2 
    DVT2 = -0.032 
    DVT0W =      0 
    DVT1W =      0 
    DVT2W =      0 
    DROUT =    0.5 
    DSUB =    0.1 
    VTH0 =  0.469 
    EU =   1.67 
    UA = 6e-010 
    UA1 = 4.31e-009 
    UB = 1.2e-018 
    UB1 = 7.61e-018 
    UC =      0 
    UC1 = -5.6e-011 
    U0 = 0.04372 
    UTE =   -1.5 
    VOFF =  -0.13 
    VOFFL =      0 
    MINV =   0.05 
    FPROUT =    0.2 
    PDITS =   0.08 
    PDITSD =   0.23 
    PDITSL = 2.3e+006 
    DELTA =   0.01 
    RDSW =    155 
    RDSWMIN =      0 
    RDWMIN =      0 
    RSWMIN =      0 
    RDW =     85 
    RSW =     85 
    PRWG =      0 
    PRWB = 6.8e-011 
    PRT =      0 
    ETA0 = 0.0049 
    ETAB =      0 
    PCLM =   0.04 
    PDIBLC1 =  0.001 
    PDIBLC2 =  0.001 
    PDIBLCB = -0.005 
    PSCBE1 = 8.14e+008 
    PSCBE2 = 1e-007 
    PVAG = 1e-020 
    WR =      1 
    DWG =      0 
    DWB =      0 
    XW =      0 
    XWREF =      0 
    XL = -2e-008 
    XLREF = -2e-008 
    B0 =      0 
    B1 =      0 
    ALPHA0 =  0.074 
    ALPHA1 =  0.005 
    AGIDL = 0.0002 
    BGIDL = 2.1e+009 
    CGIDL = 0.0002 
    PHIN =      0 
    EGIDL =    0.8 
    AIGC =  0.012 
    BIGC = 0.0028 
    CIGC =  0.002 
    AIGSD =  0.012 
    BIGSD = 0.0028 
    CIGSD =  0.002 
    AIGBACC =  0.012 
    BIGBACC = 0.0028 
    CIGBACC =  0.002 
    AIGBINV =  0.014 
    BIGBINV =  0.004 
    CIGBINV =  0.004 
    NIGC =      1 
    NIGBINV =      3 
    NIGBACC =      1 
    NTOX =      1 
    EIGBINV =    1.1 
    PIGCD =      1 
    POXEDGE =      1 
    XRCRG1 =     12 
    TNOIA =    1.5 
    TNOIB =    3.5 
    NTNOI =      1 
    XRCRG2 =      5 
    BETA0 =     30 
    IJTHDFWD =   0.01 
    IJTHSFWD =   0.01 
    IJTHDREV =  0.001 
    IJTHSREV =  0.001 
    XJBVD =      1 
    XJBVS =      1 
    BVD =     10 
    BVS =     10 
    VFB =  -0.55 
    GBMIN = 1e-010 
    RBDB =     15 
    RBPB =      5 
    RBSB =     15 
    RBPS =     15 
    RBPD =     15 
    CGSL = 2.653e-010 
    CGDL = 2.653e-010 
    CKAPPAS =   0.03 
    CKAPPAD =   0.03 
    CF = 1.195e-010 
    CLC = 1e-007 
    CLE =    0.6 
    DWC = 5e-009 
    DLC = 3.75e-009 
    DLCIG = 3.75e-009 
    DWJ =      0 
    VFBCV =     -1 
    ACDE =      1 
    MOIN =     15 
    NOFF =    0.9 
    VOFFCV =   0.02 
    DMCG =      0 
    DMCI =      0 
    DMDG =      0 
    DMCGT =      0 
    XGW =      0 
    XGL =      0 
    RSHG =    0.4 
    NGCON =      1 
    TCJ =  0.001 
    TPB =  0.005 
    TCJSW =  0.001 
    TPBSW =  0.005 
    TCJSWG =  0.001 
    TPBSWG =  0.005 
    SK0 =      0 
    SK1 =      0 
    SK2 =      0 
    SL = 2e-006 
    SW = 2e-006 
    K =      0 
    TNOM =  300.1 
    CGSO = 1.1e-010 
    CGDO = 1.1e-010 
    CGBO = 2.56e-011 
    XPART =      0 
    RSH =      5 
    JSS = 0.0001 
    JSWS = 1e-011 
    JSWGS = 1e-010 
    PBS =      1 
    MJS =    0.5 
    PBSWS =      1 
    MJSWS =   0.33 
    CJS = 0.0005 
    CJSWS = 5e-010 
    NJS =      1 
    PBSWGS =      1 
    MJSWGS =   0.33 
    CJSWGS = 3e-010 
    XTIS =      3 
    JSD = 0.0001 
    JSWD = 1e-011 
    JSWGD = 1e-010 
    PBD =      1 
    MJD =    0.5 
    PBSWD =      1 
    MJSWD =   0.33 
    CJD = 0.0005 
    CJSWD = 5e-010 
    NJD =      1 
    PBSWGD =      1 
    MJSWGD =   0.33 
    CJSWGD = 5e-010 
    XTID =      3 
    LMLT =      1 
    WMLT =      1 
    LINT = 3.75e-009 
    LL =      0 
    LLC =      0 
    LLN =      1 
    LW =      0 
    LWC =      0 
    LWN =      1 
    LWL =      0 
    LWLC =      0 
    LMIN =      0 
    LMAX =      1 
    WINT = 5e-009 
    WL =      0 
    WLC =      0 
    WLN =      1 
    WW =      0 
    WWC =      0 
    WWN =      1 
    WWL =      0 
    WWLC =      0 
    WMIN =      0 
    WMAX =      1 
    NOIA = 6.25e+041 
    NOIB = 3.125e+026 
    NOIC = 8.75e+009 
    EM = 4.1e+007 
    EF =      1 
    AF =      1 
    KF =      0 
    TRS =      0 
    TRD =      0 
 

 
Model Name: pmos  

 BSIM4 Model (Level 54)

    MOBMOD = 0
    BINUNIT = 1
    PARAMCHK = 1
    CAPMOD = 2
    DIOMOD = 1
    RDSMOD = 0
    TRNQSMOD = 0
    ACNQSMOD = 0
    RBODYMOD = 1
    RGATEMOD = 1
    PERMOD = 1
    GEOMOD = 1
    RGEOMOD = 0
    FNOIMOD = 1
    TNOIMOD = 0
    IGCMOD = 1
    IGBMOD = 1
    STIMOD = 0
    VERSION =      4 
    TOXREF = 1.85e-009 
    TOXE = 1.85e-009 
    TOXP = 1.1e-009 
    TOXM = 1.85e-009 
    DTOX = 7.5e-010 
    EPSROX =    3.9 
    CDSC =      0 
    CDSCB =      0 
    CDSCD =      0 
    CIT =      0 
    NFACTOR =    2.1 
    XJ = 1.4e-008 
    VSAT = 7e+004 
    A0 =      1 
    AGS = 1e-020 
    A1 =      0 
    A2 =      1 
    AT = 3.3e+004 
    KETA = -0.047 
    NSUB = 6e+016 
    NDEP = 2.5e+018 
    NSD = 2e+020 
    NGATE = 2e+020 
    GAMMA1 =      0 
    GAMMA2 =      0 
    VBX =      0 
    VBM =     -3 
    XT = 1.55e-007 
    K1 =  0.488 
    KT1 =  -0.11 
    KT1L =      0 
    KT2 =  0.022 
    K2 =  -0.01 
    K3 =      0 
    K3B =      0 
    LPE0 =      0 
    LPEB =      0 
    DVTP0 = 1e-009 
    DVTP1 =   0.05 
    W0 = 2.5e-006 
    DVT0 =      1 
    DVT1 =      2 
    DVT2 = -0.032 
    DVT0W =      0 
    DVT1W =      0 
    DVT2W =      0 
    DROUT =   0.56 
    DSUB =    0.1 
    VTH0 = -0.418 
    EU =      1 
    UA = 2e-009 
    UA1 = 4.31e-009 
    UB = 5e-019 
    UB1 = 7.61e-018 
    UC =      0 
    UC1 = -5.6e-011 
    U0 = 0.00439 
    UTE =   -1.5 
    VOFF = -0.126 
    VOFFL =      0 
    MINV =   0.05 
    FPROUT =    0.2 
    PDITS =   0.08 
    PDITSD =   0.23 
    PDITSL = 2.3e+006 
    DELTA =   0.01 
    RDSW =    155 
    RDSWMIN =      0 
    RDWMIN =      0 
    RSWMIN =      0 
    RDW =     85 
    RSW =     85 
    PRWG = 3.22e-008 
    PRWB = 6.8e-011 
    PRT =      0 
    ETA0 = 0.0049 
    ETAB =      0 
    PCLM =   0.12 
    PDIBLC1 =  0.001 
    PDIBLC2 =  0.001 
    PDIBLCB = 3.4e-008 
    PSCBE1 = 8.14e+008 
    PSCBE2 = 9.58e-007 
    PVAG = 1e-020 
    WR =      1 
    DWG =      0 
    DWB =      0 
    XW =      0 
    XWREF =      0 
    XL = -2e-008 
    XLREF = -2e-008 
    B0 = -1e-020 
    B1 =      0 
    ALPHA0 =  0.074 
    ALPHA1 =  0.005 
    AGIDL = 0.0002 
    BGIDL = 2.1e+009 
    CGIDL = 0.0002 
    PHIN =      0 
    EGIDL =    0.8 
    AIGC =   0.69 
    BIGC = 0.0012 
    CIGC = 0.0008 
    AIGSD = 0.0087 
    BIGSD = 0.0012 
    CIGSD = 0.0008 
    AIGBACC =  0.012 
    BIGBACC = 0.0028 
    CIGBACC =  0.002 
    AIGBINV =  0.014 
    BIGBINV =  0.004 
    CIGBINV =  0.004 
    NIGC =      1 
    NIGBINV =      3 
    NIGBACC =      1 
    NTOX =      1 
    EIGBINV =    1.1 
    PIGCD =      1 
    POXEDGE =      1 
    XRCRG1 =     12 
    TNOIA =    1.5 
    TNOIB =    3.5 
    NTNOI =      1 
    XRCRG2 =      5 
    BETA0 =     30 
    IJTHDFWD =   0.01 
    IJTHSFWD =   0.01 
    IJTHDREV =  0.001 
    IJTHSREV =  0.001 
    XJBVD =      1 
    XJBVS =      1 
    BVD =     10 
    BVS =     10 
    VFB =   0.55 
    GBMIN = 1e-010 
    RBDB =     15 
    RBPB =      5 
    RBSB =     15 
    RBPS =     15 
    RBPD =     15 
    CGSL = 2.653e-010 
    CGDL = 2.653e-010 
    CKAPPAS =   0.03 
    CKAPPAD =   0.03 
    CF = 1.183e-010 
    CLC = 1e-007 
    CLE =    0.6 
    DWC = 5e-009 
    DLC = 3.75e-009 
    DLCIG = 3.75e-009 
    DWJ =      0 
    VFBCV =     -1 
    ACDE =      1 
    MOIN =     15 
    NOFF =    0.9 
    VOFFCV =   0.02 
    DMCG =      0 
    DMCI =      0 
    DMDG =      0 
    DMCGT =      0 
    XGW =      0 
    XGL =      0 
    RSHG =    0.4 
    NGCON =      1 
    TCJ =  0.001 
    TPB =  0.005 
    TCJSW =  0.001 
    TPBSW =  0.005 
    TCJSWG =  0.001 
    TPBSWG =  0.005 
    SK0 =      0 
    SK1 =      0 
    SK2 =      0 
    SL = 2e-006 
    SW = 2e-006 
    K =      0 
    TNOM =  300.1 
    CGSO = 1.1e-010 
    CGDO = 1.1e-010 
    CGBO = 2.56e-011 
    XPART =      0 
    RSH =      5 
    JSS = 0.0001 
    JSWS = 1e-011 
    JSWGS = 1e-010 
    PBS =      1 
    MJS =    0.5 
    PBSWS =      1 
    MJSWS =   0.33 
    CJS = 0.0005 
    CJSWS = 5e-010 
    NJS =      1 
    PBSWGS =      1 
    MJSWGS =   0.33 
    CJSWGS = 3e-010 
    XTIS =      3 
    JSD = 0.0001 
    JSWD = 1e-011 
    JSWGD = 1e-010 
    PBD =      1 
    MJD =    0.5 
    PBSWD =      1 
    MJSWD =   0.33 
    CJD = 0.0005 
    CJSWD = 5e-010 
    NJD =      1 
    PBSWGD =      1 
    MJSWGD =   0.33 
    CJSWGD = 5e-010 
    XTID =      3 
    LMLT =      1 
    WMLT =      1 
    LINT = 3.75e-009 
    LL =      0 
    LLC =      0 
    LLN =      1 
    LW =      0 
    LWC =      0 
    LWN =      1 
    LWL =      0 
    LWLC =      0 
    LMIN =      0 
    LMAX =      1 
    WINT = 5e-009 
    WL =      0 
    WLC =      0 
    WLN =      1 
    WW =      0 
    WWC =      0 
    WWN =      1 
    WWL =      0 
    WWLC =      0 
    WMIN =      0 
    WMAX =      1 
    NOIA = 6.188e+040 
    NOIB = 1.5e+025 
    NOIC = 8.75e+009 
    EM = 4.1e+007 
    EF =      1 
    AF =      1 
    KF =      0 
    TRS =      0 
    TRD =      0 
 

  **info** (d:\digital electronic\projects\ca_1\question_1_part_g_capacitance_50\q1_part_g_capacitance_50.sp:34) DC voltage reset to initial transient source value              in source        0:vin                 new dc=  0.0000D+00
 Warning:  Acde = 1 may be too small in BSIM4 model nmos with w=9e-008 l=4.5e-008.

 Warning: (B1 + Weff) may be too small in BSIM4 model nmos with w=9e-008 l=4.5e-008.

 Warning:  Acde = 1 may be too small in BSIM4 model pmos with w=1.8e-007 l=4.5e-008.

 
      
 **info** set option symb=1 internally to help for convergence.
 *****************************************************************
 ******  option summary
 ******
 runlvl  = 3         bypass  = 2         
 Warning:  Acde = 1 may be too small in BSIM4 model nmos with w=9e-008 l=4.5e-008.

 Warning: (B1 + Weff) may be too small in BSIM4 model nmos with w=9e-008 l=4.5e-008.

 Warning:  Acde = 1 may be too small in BSIM4 model pmos with w=1.8e-007 l=4.5e-008.

1****** HSPICE -- D-2010.03-SP1 32-BIT (May 26 2010) winnt ******               
 ******  
 first line of the netlist must be blank.

  ******  operating point information tnom=  25.000 temp=  27.000 *****
 ***** operating point status is all       simulation time is     0.     
    node    =voltage      node    =voltage      node    =voltage

 +0:in      =   0.      0:out     = 999.9601m 0:vdd     =   1.0000 


 ****  voltage sources

 subckt                        
 element  0:v1       0:vin     
  volts      1.0000     0.     
  current   -7.5777n  302.6121p
  power      7.5777n    0.     

     total voltage source power dissipation=    7.5777n       watts




 **** mosfets


 subckt                        
 element  0:m1       0:m2      
 model    0:pmos     0:nmos    
 region       Linear     Cutoff
  id        -7.5716n    7.2741n
  ibs     -3.429e-25  9.488e-25
  ibd       55.2575a   -1.0100p
  vgs       -1.0000     0.     
  vds      -39.8586u  999.9601m
  vbs        0.         0.     
  vth     -413.3471m  309.2431m
  vdsat   -439.2456m   37.5438m
  vod     -586.6529m -309.2431m
  beta     397.0420u    3.8069m
  gam eff  488.0000m  528.0000m
  gm         8.4558n  171.9736n
  gds      189.9553u   29.3232n
  gmb        3.5742n   56.5351n
  cdtot    259.1384a   56.3712a
  cgtot    246.7224a   62.8784a
  cstot    237.3373a  104.0121a
  cbtot    253.3401a  118.0935a
  cgs      141.2729a   32.0135a
  cgd      104.8915a   20.5717a



 ******  
 first line of the netlist must be blank.

  ******  transient analysis tnom=  25.000 temp=  27.000 *****
x

        time    voltage    
                    out    
    0.          999.9601m  
  100.00000p    824.0661m  
  200.00000p    642.9887m  
  300.00000p    516.7822m  
  400.00000p    400.3073m  
  500.00000p    283.8324m  
  600.00000p    167.3575m  
  700.00000p     74.7145m  
  800.00000p     27.3654m  
  900.00000p      7.4085m  
    1.00000n     -3.7974m  
    1.10000n    -14.1005m  
    1.20000n    -24.4036m  
    1.30000n    -34.7067m  
    1.40000n    -41.6341m  
    1.50000n    -30.5931m  
    1.60000n    -19.5521m  
    1.70000n     -8.5110m  
    1.80000n    970.7490u  
    1.90000n    629.9823u  
    2.00000n    289.2155u  
    2.10000n    -51.5512u  
    2.20000n    -38.8532u  
    2.30000n    -17.6424u  
    2.40000n      3.5685u  
    2.50000n     24.7794u  
    2.60000n     45.9902u  
    2.70000n     45.6106u  
    2.80000n     43.1307u  
    2.90000n     40.6507u  
    3.00000n     38.1708u  
    3.10000n     35.6909u  
    3.20000n     33.2109u  
    3.30000n     30.7310u  
    3.40000n     28.2510u  
    3.50000n     25.7711u  
    3.60000n     23.2911u  
    3.70000n     20.8112u  
    3.80000n     18.3312u  
    3.90000n     15.8513u  
    4.00000n     13.3714u  
    4.10000n     10.8914u  
    4.20000n     10.2389u  
    4.30000n     11.7677u  
    4.40000n     13.2966u  
    4.50000n     14.8254u  
    4.60000n     16.3543u  
    4.70000n     17.8832u  
    4.80000n     19.4120u  
    4.90000n     20.9409u  
    5.00000n     22.4697u  
    5.10000n     23.9986u  
    5.20000n     25.5274u  
    5.30000n     27.0563u  
    5.40000n     28.5851u  
    5.50000n     30.1140u  
    5.60000n     31.6429u  
    5.70000n     33.1717u  
    5.80000n     34.7006u  
    5.90000n     36.2294u  
    6.00000n     35.9771u  
    6.10000n     35.5911u  
    6.20000n     35.2052u  
    6.30000n     34.8192u  
    6.40000n     34.4333u  
    6.50000n     34.0473u  
    6.60000n     33.6614u  
    6.70000n     33.2755u  
    6.80000n     32.8895u  
    6.90000n     32.5036u  
    7.00000n     32.1176u  
    7.10000n     31.7317u  
    7.20000n     31.3457u  
    7.30000n     30.9598u  
    7.40000n     30.5739u  
    7.50000n     30.1879u  
    7.60000n     29.8020u  
    7.70000n     29.4160u  
    7.80000n     29.0301u  
    7.90000n     28.6441u  
    8.00000n     28.2582u  
    8.10000n     27.8723u  
    8.20000n     27.4863u  
    8.30000n     27.1004u  
    8.40000n     26.7144u  
    8.50000n     26.3285u  
    8.60000n     25.9425u  
    8.70000n     25.5566u  
    8.80000n     25.1707u  
    8.90000n     24.7847u  
    9.00000n     24.3988u  
    9.10000n     24.0128u  
    9.20000n     23.6269u  
    9.30000n     23.2409u  
    9.40000n     22.8550u  
    9.50000n     22.4690u  
    9.60000n     22.0831u  
    9.70000n     21.6972u  
    9.80000n     21.3112u  
    9.90000n     20.9253u  
   10.00000n     20.5393u  
   10.10000n     20.1534u  
   10.20000n     19.7674u  
   10.30000n     19.3815u  
   10.40000n     18.9956u  
   10.50000n     18.6096u  
   10.60000n     18.2237u  
   10.70000n     17.8377u  
   10.80000n     17.4518u  
   10.90000n     17.0658u  
   11.00000n     16.6799u  
   11.10000n     16.2940u  
   11.20000n     15.9080u  
   11.30000n     15.5221u  
   11.40000n     15.1361u  
   11.50000n     14.7502u  
   11.60000n     14.8894u  
   11.70000n     15.1225u  
   11.80000n     15.3557u  
   11.90000n     15.5888u  
   12.00000n     15.8220u  
   12.10000n     16.0551u  
   12.20000n     16.2883u  
   12.30000n     16.5214u  
   12.40000n     16.7546u  
   12.50000n     16.9877u  
   12.60000n     17.2209u  
   12.70000n     17.4540u  
   12.80000n     17.6872u  
   12.90000n     17.9203u  
   13.00000n     18.1535u  
   13.10000n     18.3866u  
   13.20000n     18.6198u  
   13.30000n     18.8529u  
   13.40000n     19.0861u  
   13.50000n     19.3192u  
   13.60000n     19.5524u  
   13.70000n     19.7855u  
   13.80000n     20.0187u  
   13.90000n     20.2518u  
   14.00000n     20.4850u  
   14.10000n     20.7181u  
   14.20000n     20.9513u  
   14.30000n     21.1844u  
   14.40000n     21.4176u  
   14.50000n     21.6507u  
   14.60000n     21.8839u  
   14.70000n     22.1170u  
   14.80000n     22.3502u  
   14.90000n     22.5833u  
   15.00000n     22.8164u  
   15.10000n     23.0496u  
   15.20000n     23.2827u  
   15.30000n     23.5159u  
   15.40000n     23.7490u  
   15.50000n     23.9822u  
   15.60000n     24.2153u  
   15.70000n     24.4485u  
   15.80000n     24.6816u  
   15.90000n     24.9148u  
   16.00000n     25.1479u  
   16.10000n     25.3811u  
   16.20000n     25.6142u  
   16.30000n     25.8474u  
   16.40000n     26.0805u  
   16.50000n     26.3137u  
   16.60000n     26.5468u  
   16.70000n     26.7800u  
   16.80000n     27.0131u  
   16.90000n     27.2463u  
   17.00000n     27.4794u  
   17.10000n     27.7126u  
   17.20000n     27.9457u  
   17.30000n     28.1789u  
   17.40000n     28.4120u  
   17.50000n     28.6452u  
   17.60000n     28.8783u  
   17.70000n     29.1115u  
   17.80000n     29.3446u  
   17.90000n     29.5778u  
   18.00000n     29.8109u  
   18.10000n     30.0441u  
   18.20000n     30.2772u  
   18.30000n     30.5104u  
   18.40000n     30.7435u  
   18.50000n     30.9766u  
   18.60000n     31.2098u  
   18.70000n     31.4429u  
   18.80000n     31.6761u  
   18.90000n     31.9092u  
   19.00000n     32.1424u  
   19.10000n     32.3755u  
   19.20000n     32.6087u  
   19.30000n     32.8418u  
   19.40000n     33.0750u  
   19.50000n     33.3081u  
   19.60000n     33.5413u  
   19.70000n     33.7744u  
   19.80000n     34.0076u  
   19.90000n     34.2407u  
   20.00000n     34.4739u  
   20.10000n    132.8690m  
   20.20000n    279.4787m  
   20.30000n    396.9111m  
   20.40000n    495.4404m  
   20.50000n    593.9697m  
   20.60000n    692.4989m  
   20.70000n    791.0282m  
   20.80000n    850.2198m  
   20.90000n    899.8778m  
   21.00000n    949.5358m  
   21.10000n    972.2100m  
   21.20000n    983.5120m  
   21.30000n    994.8139m  
   21.40000n      1.0038   
   21.50000n      1.0112   
   21.60000n      1.0185   
   21.70000n      1.0149   
   21.80000n      1.0078   
   21.90000n      1.0007   
   22.00000n      1.0001   
   22.10000n      1.0001   
   22.20000n      1.0000   
   22.30000n      1.0000   
   22.40000n    999.9802m  
   22.50000n    999.9763m  
   22.60000n    999.9725m  
   22.70000n    999.9686m  
   22.80000n    999.9648m  
   22.90000n    999.9609m  
   23.00000n    999.9601m  
   23.10000n    999.9601m  
   23.20000n    999.9601m  
   23.30000n    999.9601m  
   23.40000n    999.9601m  
   23.50000n    999.9601m  
   23.60000n    999.9601m  
   23.70000n    999.9601m  
   23.80000n    999.9602m  
   23.90000n    999.9602m  
   24.00000n    999.9602m  
   24.10000n    999.9602m  
   24.20000n    999.9602m  
   24.30000n    999.9602m  
   24.40000n    999.9602m  
   24.50000n    999.9602m  
   24.60000n    999.9602m  
   24.70000n    999.9602m  
   24.80000n    999.9602m  
   24.90000n    999.9602m  
   25.00000n    999.9602m  
   25.10000n    999.9602m  
   25.20000n    999.9602m  
   25.30000n    999.9602m  
   25.40000n    999.9602m  
   25.50000n    999.9602m  
   25.60000n    999.9602m  
   25.70000n    999.9602m  
   25.80000n    999.9602m  
   25.90000n    999.9602m  
   26.00000n    999.9602m  
   26.10000n    999.9602m  
   26.20000n    999.9602m  
   26.30000n    999.9602m  
   26.40000n    999.9602m  
   26.50000n    999.9602m  
   26.60000n    999.9602m  
   26.70000n    999.9602m  
   26.80000n    999.9602m  
   26.90000n    999.9602m  
   27.00000n    999.9602m  
   27.10000n    999.9602m  
   27.20000n    999.9602m  
   27.30000n    999.9602m  
   27.40000n    999.9602m  
   27.50000n    999.9602m  
   27.60000n    999.9602m  
   27.70000n    999.9602m  
   27.80000n    999.9602m  
   27.90000n    999.9602m  
   28.00000n    999.9602m  
   28.10000n    999.9602m  
   28.20000n    999.9602m  
   28.30000n    999.9601m  
   28.40000n    999.9601m  
   28.50000n    999.9601m  
   28.60000n    999.9601m  
   28.70000n    999.9601m  
   28.80000n    999.9601m  
   28.90000n    999.9601m  
   29.00000n    999.9601m  
   29.10000n    999.9601m  
   29.20000n    999.9601m  
   29.30000n    999.9601m  
   29.40000n    999.9601m  
   29.50000n    999.9601m  
   29.60000n    999.9601m  
   29.70000n    999.9601m  
   29.80000n    999.9601m  
   29.90000n    999.9601m  
   30.00000n    999.9601m  
   30.10000n    999.9601m  
   30.20000n    999.9601m  
   30.30000n    999.9601m  
   30.40000n    999.9601m  
   30.50000n    999.9601m  
   30.60000n    999.9601m  
   30.70000n    999.9601m  
   30.80000n    999.9601m  
   30.90000n    999.9601m  
   31.00000n    999.9601m  
   31.10000n    999.9601m  
   31.20000n    999.9601m  
   31.30000n    999.9601m  
   31.40000n    999.9601m  
   31.50000n    999.9601m  
   31.60000n    999.9601m  
   31.70000n    999.9601m  
   31.80000n    999.9601m  
   31.90000n    999.9601m  
   32.00000n    999.9601m  
   32.10000n    999.9601m  
   32.20000n    999.9601m  
   32.30000n    999.9601m  
   32.40000n    999.9601m  
   32.50000n    999.9601m  
   32.60000n    999.9601m  
   32.70000n    999.9601m  
   32.80000n    999.9601m  
   32.90000n    999.9601m  
   33.00000n    999.9601m  
   33.10000n    999.9601m  
   33.20000n    999.9601m  
   33.30000n    999.9601m  
   33.40000n    999.9601m  
   33.50000n    999.9601m  
   33.60000n    999.9601m  
   33.70000n    999.9601m  
   33.80000n    999.9601m  
   33.90000n    999.9601m  
   34.00000n    999.9601m  
   34.10000n    999.9601m  
   34.20000n    999.9601m  
   34.30000n    999.9601m  
   34.40000n    999.9601m  
   34.50000n    999.9601m  
   34.60000n    999.9601m  
   34.70000n    999.9601m  
   34.80000n    999.9601m  
   34.90000n    999.9601m  
   35.00000n    999.9601m  
   35.10000n    999.9601m  
   35.20000n    999.9601m  
   35.30000n    999.9601m  
   35.40000n    999.9601m  
   35.50000n    999.9601m  
   35.60000n    999.9601m  
   35.70000n    999.9601m  
   35.80000n    999.9601m  
   35.90000n    999.9601m  
   36.00000n    999.9601m  
   36.10000n    999.9601m  
   36.20000n    999.9601m  
   36.30000n    999.9601m  
   36.40000n    999.9601m  
   36.50000n    999.9601m  
   36.60000n    999.9601m  
   36.70000n    999.9601m  
   36.80000n    999.9601m  
   36.90000n    999.9601m  
   37.00000n    999.9601m  
   37.10000n    999.9601m  
   37.20000n    999.9601m  
   37.30000n    999.9601m  
   37.40000n    999.9601m  
   37.50000n    999.9602m  
   37.60000n    999.9602m  
   37.70000n    999.9602m  
   37.80000n    999.9602m  
   37.90000n    999.9602m  
   38.00000n    999.9602m  
   38.10000n    999.9602m  
   38.20000n    999.9602m  
   38.30000n    999.9602m  
   38.40000n    999.9602m  
   38.50000n    999.9602m  
   38.60000n    999.9602m  
   38.70000n    999.9602m  
   38.80000n    999.9602m  
   38.90000n    999.9602m  
   39.00000n    999.9602m  
   39.10000n    999.9602m  
   39.20000n    999.9602m  
   39.30000n    999.9602m  
   39.40000n    999.9602m  
   39.50000n    999.9602m  
   39.60000n    999.9602m  
   39.70000n    999.9602m  
   39.80000n    999.9602m  
   39.90000n    999.9602m  
   40.00000n    999.9602m  
   40.10000n    999.9602m  
   40.20000n    999.9602m  
   40.30000n    999.9602m  
   40.40000n    999.9602m  
   40.50000n    999.9602m  
   40.60000n    999.9602m  
   40.70000n    999.9602m  
   40.80000n    999.9602m  
   40.90000n    999.9602m  
   41.00000n    999.9602m  
   41.10000n    999.9602m  
   41.20000n    999.9602m  
   41.30000n    999.9602m  
   41.40000n    999.9602m  
   41.50000n    999.9602m  
   41.60000n    999.9602m  
   41.70000n    999.9602m  
   41.80000n    999.9602m  
   41.90000n    999.9602m  
   42.00000n    999.9601m  
   42.10000n    999.9601m  
   42.20000n    999.9601m  
   42.30000n    999.9601m  
   42.40000n    999.9601m  
   42.50000n    999.9601m  
   42.60000n    999.9601m  
   42.70000n    999.9601m  
   42.80000n    999.9601m  
   42.90000n    999.9601m  
   43.00000n    999.9601m  
   43.10000n    999.9601m  
   43.20000n    999.9601m  
   43.30000n    999.9601m  
   43.40000n    999.9601m  
   43.50000n    999.9601m  
   43.60000n    999.9601m  
   43.70000n    999.9601m  
   43.80000n    999.9601m  
   43.90000n    999.9601m  
   44.00000n    999.9601m  
   44.10000n    999.9601m  
   44.20000n    999.9601m  
   44.30000n    999.9601m  
   44.40000n    999.9601m  
   44.50000n    999.9601m  
   44.60000n    999.9601m  
   44.70000n    999.9601m  
   44.80000n    999.9601m  
   44.90000n    999.9601m  
   45.00000n    999.9601m  
   45.10000n    999.9601m  
   45.20000n    999.9601m  
   45.30000n    999.9601m  
   45.40000n    999.9601m  
   45.50000n    999.9601m  
   45.60000n    999.9601m  
   45.70000n    999.9601m  
   45.80000n    999.9601m  
   45.90000n    999.9601m  
   46.00000n    999.9601m  
   46.10000n    999.9601m  
   46.20000n    999.9601m  
   46.30000n    999.9601m  
   46.40000n    999.9601m  
   46.50000n    999.9601m  
   46.60000n    999.9601m  
   46.70000n    999.9601m  
   46.80000n    999.9601m  
   46.90000n    999.9601m  
   47.00000n    999.9601m  
   47.10000n    999.9601m  
   47.20000n    999.9601m  
   47.30000n    999.9601m  
   47.40000n    999.9601m  
   47.50000n    999.9601m  
   47.60000n    999.9601m  
   47.70000n    999.9601m  
   47.80000n    999.9601m  
   47.90000n    999.9601m  
   48.00000n    999.9601m  
   48.10000n    999.9601m  
   48.20000n    999.9601m  
   48.30000n    999.9601m  
   48.40000n    999.9601m  
   48.50000n    999.9601m  
   48.60000n    999.9601m  
   48.70000n    999.9601m  
   48.80000n    999.9601m  
   48.90000n    999.9601m  
   49.00000n    999.9601m  
   49.10000n    999.9601m  
   49.20000n    999.9601m  
   49.30000n    999.9601m  
   49.40000n    999.9601m  
   49.50000n    999.9601m  
   49.60000n    999.9601m  
   49.70000n    999.9601m  
   49.80000n    999.9601m  
   49.90000n    999.9601m  
   50.00000n    999.9601m  
   50.10000n    999.9601m  
   50.20000n    999.9601m  
   50.30000n    999.9601m  
   50.40000n    999.9601m  
   50.50000n    999.9601m  
   50.60000n    999.9601m  
   50.70000n    999.9601m  
   50.80000n    999.9601m  
   50.90000n    999.9601m  
   51.00000n    999.9601m  
   51.10000n    999.9601m  
   51.20000n    999.9601m  
   51.30000n    999.9601m  
   51.40000n    999.9601m  
   51.50000n    999.9601m  
   51.60000n    999.9601m  
   51.70000n    999.9601m  
   51.80000n    999.9601m  
   51.90000n    999.9601m  
   52.00000n    999.9601m  
   52.10000n    999.9601m  
   52.20000n    999.9601m  
   52.30000n    999.9601m  
   52.40000n    999.9601m  
   52.50000n    999.9601m  
   52.60000n    999.9601m  
   52.70000n    999.9601m  
   52.80000n    999.9601m  
   52.90000n    999.9601m  
   53.00000n    999.9601m  
   53.10000n    999.9601m  
   53.20000n    999.9601m  
   53.30000n    999.9601m  
   53.40000n    999.9601m  
   53.50000n    999.9601m  
   53.60000n    999.9601m  
   53.70000n    999.9601m  
   53.80000n    999.9601m  
   53.90000n    999.9601m  
   54.00000n    999.9601m  
   54.10000n    999.9601m  
   54.20000n    999.9601m  
   54.30000n    999.9601m  
   54.40000n    999.9601m  
   54.50000n    999.9601m  
   54.60000n    999.9601m  
   54.70000n    999.9601m  
   54.80000n    999.9601m  
   54.90000n    999.9601m  
   55.00000n    999.9601m  
   55.10000n    999.9601m  
   55.20000n    999.9601m  
   55.30000n    999.9601m  
   55.40000n    999.9601m  
   55.50000n    999.9601m  
   55.60000n    999.9601m  
   55.70000n    999.9601m  
   55.80000n    999.9601m  
   55.90000n    999.9601m  
   56.00000n    999.9601m  
   56.10000n    999.9601m  
   56.20000n    999.9601m  
   56.30000n    999.9601m  
   56.40000n    999.9601m  
   56.50000n    999.9601m  
   56.60000n    999.9601m  
   56.70000n    999.9601m  
   56.80000n    999.9601m  
   56.90000n    999.9601m  
   57.00000n    999.9601m  
   57.10000n    999.9601m  
   57.20000n    999.9601m  
   57.30000n    999.9601m  
   57.40000n    999.9601m  
   57.50000n    999.9601m  
   57.60000n    999.9601m  
   57.70000n    999.9601m  
   57.80000n    999.9601m  
   57.90000n    999.9601m  
   58.00000n    999.9601m  
   58.10000n    999.9602m  
   58.20000n    999.9602m  
   58.30000n    999.9602m  
   58.40000n    999.9602m  
   58.50000n    999.9602m  
   58.60000n    999.9602m  
   58.70000n    999.9602m  
   58.80000n    999.9602m  
   58.90000n    999.9602m  
   59.00000n    999.9602m  
   59.10000n    999.9602m  
   59.20000n    999.9602m  
   59.30000n    999.9602m  
   59.40000n    999.9602m  
   59.50000n    999.9602m  
   59.60000n    999.9602m  
   59.70000n    999.9602m  
   59.80000n    999.9602m  
   59.90000n    999.9602m  
   60.00000n    999.9602m  
   60.10000n    999.9602m  
   60.20000n    999.9602m  
   60.30000n    999.9602m  
   60.40000n    999.9602m  
   60.50000n    999.9602m  
   60.60000n    999.9602m  
   60.70000n    999.9602m  
   60.80000n    999.9602m  
   60.90000n    999.9602m  
   61.00000n    999.9602m  
   61.10000n    999.9602m  
   61.20000n    999.9602m  
   61.30000n    999.9601m  
   61.40000n    999.9601m  
   61.50000n    999.9601m  
   61.60000n    999.9601m  
   61.70000n    999.9601m  
   61.80000n    999.9601m  
   61.90000n    999.9601m  
   62.00000n    999.9601m  
   62.10000n    999.9601m  
   62.20000n    999.9601m  
   62.30000n    999.9601m  
   62.40000n    999.9601m  
   62.50000n    999.9601m  
   62.60000n    999.9601m  
   62.70000n    999.9601m  
   62.80000n    999.9601m  
   62.90000n    999.9601m  
   63.00000n    999.9601m  
   63.10000n    999.9601m  
   63.20000n    999.9601m  
   63.30000n    999.9601m  
   63.40000n    999.9601m  
   63.50000n    999.9601m  
   63.60000n    999.9601m  
   63.70000n    999.9601m  
   63.80000n    999.9601m  
   63.90000n    999.9601m  
   64.00000n    999.9601m  
   64.10000n    999.9601m  
   64.20000n    999.9601m  
   64.30000n    999.9601m  
   64.40000n    999.9601m  
   64.50000n    999.9601m  
   64.60000n    999.9601m  
   64.70000n    999.9601m  
   64.80000n    999.9601m  
   64.90000n    999.9601m  
   65.00000n    999.9601m  
   65.10000n    999.9601m  
   65.20000n    999.9601m  
   65.30000n    999.9601m  
   65.40000n    999.9601m  
   65.50000n    999.9601m  
   65.60000n    999.9601m  
   65.70000n    999.9601m  
   65.80000n    999.9601m  
   65.90000n    999.9601m  
   66.00000n    999.9601m  
   66.10000n    999.9601m  
   66.20000n    999.9601m  
   66.30000n    999.9601m  
   66.40000n    999.9601m  
   66.50000n    999.9601m  
   66.60000n    999.9601m  
   66.70000n    999.9601m  
   66.80000n    999.9601m  
   66.90000n    999.9601m  
   67.00000n    999.9601m  
   67.10000n    999.9601m  
   67.20000n    999.9601m  
   67.30000n    999.9601m  
   67.40000n    999.9601m  
   67.50000n    999.9601m  
   67.60000n    999.9601m  
   67.70000n    999.9601m  
   67.80000n    999.9601m  
   67.90000n    999.9601m  
   68.00000n    999.9601m  
   68.10000n    999.9601m  
   68.20000n    999.9601m  
   68.30000n    999.9601m  
   68.40000n    999.9601m  
   68.50000n    999.9601m  
   68.60000n    999.9601m  
   68.70000n    999.9601m  
   68.80000n    999.9601m  
   68.90000n    999.9601m  
   69.00000n    999.9601m  
   69.10000n    999.9601m  
   69.20000n    999.9601m  
   69.30000n    999.9601m  
   69.40000n    999.9601m  
   69.50000n    999.9601m  
   69.60000n    999.9601m  
   69.70000n    999.9601m  
   69.80000n    999.9601m  
   69.90000n    999.9601m  
   70.00000n    999.9601m  
   70.10000n    999.9601m  
   70.20000n    999.9601m  
   70.30000n    999.9601m  
   70.40000n    999.9601m  
   70.50000n    999.9601m  
   70.60000n    999.9601m  
   70.70000n    999.9601m  
   70.80000n    999.9601m  
   70.90000n    999.9601m  
   71.00000n    999.9601m  
   71.10000n    999.9601m  
   71.20000n    999.9601m  
   71.30000n    999.9601m  
   71.40000n    999.9601m  
   71.50000n    999.9601m  
   71.60000n    999.9601m  
   71.70000n    999.9601m  
   71.80000n    999.9601m  
   71.90000n    999.9601m  
   72.00000n    999.9601m  
   72.10000n    999.9601m  
   72.20000n    999.9601m  
   72.30000n    999.9601m  
   72.40000n    999.9601m  
   72.50000n    999.9601m  
   72.60000n    999.9601m  
   72.70000n    999.9601m  
   72.80000n    999.9601m  
   72.90000n    999.9601m  
   73.00000n    999.9601m  
   73.10000n    999.9601m  
   73.20000n    999.9601m  
   73.30000n    999.9601m  
   73.40000n    999.9601m  
   73.50000n    999.9601m  
   73.60000n    999.9601m  
   73.70000n    999.9601m  
   73.80000n    999.9601m  
   73.90000n    999.9601m  
   74.00000n    999.9601m  
   74.10000n    999.9601m  
   74.20000n    999.9601m  
   74.30000n    999.9601m  
   74.40000n    999.9601m  
   74.50000n    999.9601m  
   74.60000n    999.9601m  
   74.70000n    999.9601m  
   74.80000n    999.9601m  
   74.90000n    999.9601m  
   75.00000n    999.9601m  
   75.10000n    999.9601m  
   75.20000n    999.9601m  
   75.30000n    999.9601m  
   75.40000n    999.9601m  
   75.50000n    999.9601m  
   75.60000n    999.9601m  
   75.70000n    999.9601m  
   75.80000n    999.9601m  
   75.90000n    999.9601m  
   76.00000n    999.9601m  
   76.10000n    999.9601m  
   76.20000n    999.9601m  
   76.30000n    999.9601m  
   76.40000n    999.9601m  
   76.50000n    999.9601m  
   76.60000n    999.9601m  
   76.70000n    999.9601m  
   76.80000n    999.9601m  
   76.90000n    999.9601m  
   77.00000n    999.9601m  
   77.10000n    999.9601m  
   77.20000n    999.9601m  
   77.30000n    999.9601m  
   77.40000n    999.9601m  
   77.50000n    999.9601m  
   77.60000n    999.9601m  
   77.70000n    999.9601m  
   77.80000n    999.9601m  
   77.90000n    999.9601m  
   78.00000n    999.9601m  
   78.10000n    999.9601m  
   78.20000n    999.9601m  
   78.30000n    999.9601m  
   78.40000n    999.9601m  
   78.50000n    999.9601m  
   78.60000n    999.9601m  
   78.70000n    999.9601m  
   78.80000n    999.9601m  
   78.90000n    999.9602m  
   79.00000n    999.9602m  
   79.10000n    999.9602m  
   79.20000n    999.9602m  
   79.30000n    999.9602m  
   79.40000n    999.9602m  
   79.50000n    999.9602m  
   79.60000n    999.9602m  
   79.70000n    999.9602m  
   79.80000n    999.9602m  
   79.90000n    999.9602m  
   80.00000n    999.9602m  
   80.10000n    999.9602m  
   80.20000n    999.9602m  
   80.30000n    999.9602m  
   80.40000n    999.9602m  
   80.50000n    999.9601m  
   80.60000n    999.9601m  
   80.70000n    999.9601m  
   80.80000n    999.9601m  
   80.90000n    999.9601m  
   81.00000n    999.9601m  
   81.10000n    999.9601m  
   81.20000n    999.9601m  
   81.30000n    999.9601m  
   81.40000n    999.9601m  
   81.50000n    999.9601m  
   81.60000n    999.9601m  
   81.70000n    999.9601m  
   81.80000n    999.9601m  
   81.90000n    999.9601m  
   82.00000n    999.9601m  
   82.10000n    999.9601m  
   82.20000n    999.9601m  
   82.30000n    999.9601m  
   82.40000n    999.9601m  
   82.50000n    999.9601m  
   82.60000n    999.9601m  
   82.70000n    999.9601m  
   82.80000n    999.9601m  
   82.90000n    999.9601m  
   83.00000n    999.9601m  
   83.10000n    999.9601m  
   83.20000n    999.9601m  
   83.30000n    999.9601m  
   83.40000n    999.9601m  
   83.50000n    999.9601m  
   83.60000n    999.9601m  
   83.70000n    999.9601m  
   83.80000n    999.9601m  
   83.90000n    999.9601m  
   84.00000n    999.9601m  
   84.10000n    999.9601m  
   84.20000n    999.9601m  
   84.30000n    999.9601m  
   84.40000n    999.9601m  
   84.50000n    999.9601m  
   84.60000n    999.9601m  
   84.70000n    999.9601m  
   84.80000n    999.9601m  
   84.90000n    999.9601m  
   85.00000n    999.9601m  
   85.10000n    999.9601m  
   85.20000n    999.9601m  
   85.30000n    999.9601m  
   85.40000n    999.9601m  
   85.50000n    999.9601m  
   85.60000n    999.9601m  
   85.70000n    999.9601m  
   85.80000n    999.9601m  
   85.90000n    999.9601m  
   86.00000n    999.9601m  
   86.10000n    999.9601m  
   86.20000n    999.9601m  
   86.30000n    999.9601m  
   86.40000n    999.9601m  
   86.50000n    999.9601m  
   86.60000n    999.9601m  
   86.70000n    999.9601m  
   86.80000n    999.9601m  
   86.90000n    999.9601m  
   87.00000n    999.9601m  
   87.10000n    999.9601m  
   87.20000n    999.9601m  
   87.30000n    999.9601m  
   87.40000n    999.9601m  
   87.50000n    999.9601m  
   87.60000n    999.9601m  
   87.70000n    999.9601m  
   87.80000n    999.9601m  
   87.90000n    999.9601m  
   88.00000n    999.9601m  
   88.10000n    999.9601m  
   88.20000n    999.9601m  
   88.30000n    999.9601m  
   88.40000n    999.9601m  
   88.50000n    999.9601m  
   88.60000n    999.9601m  
   88.70000n    999.9601m  
   88.80000n    999.9601m  
   88.90000n    999.9601m  
   89.00000n    999.9601m  
   89.10000n    999.9601m  
   89.20000n    999.9601m  
   89.30000n    999.9601m  
   89.40000n    999.9601m  
   89.50000n    999.9601m  
   89.60000n    999.9601m  
   89.70000n    999.9601m  
   89.80000n    999.9601m  
   89.90000n    999.9601m  
   90.00000n    999.9601m  
   90.10000n    999.9601m  
   90.20000n    999.9601m  
   90.30000n    999.9601m  
   90.40000n    999.9601m  
   90.50000n    999.9601m  
   90.60000n    999.9601m  
   90.70000n    999.9601m  
   90.80000n    999.9601m  
   90.90000n    999.9601m  
   91.00000n    999.9601m  
   91.10000n    999.9601m  
   91.20000n    999.9601m  
   91.30000n    999.9601m  
   91.40000n    999.9601m  
   91.50000n    999.9601m  
   91.60000n    999.9601m  
   91.70000n    999.9601m  
   91.80000n    999.9601m  
   91.90000n    999.9601m  
   92.00000n    999.9601m  
   92.10000n    999.9601m  
   92.20000n    999.9601m  
   92.30000n    999.9601m  
   92.40000n    999.9601m  
   92.50000n    999.9601m  
   92.60000n    999.9601m  
   92.70000n    999.9601m  
   92.80000n    999.9601m  
   92.90000n    999.9601m  
   93.00000n    999.9601m  
   93.10000n    999.9601m  
   93.20000n    999.9601m  
   93.30000n    999.9601m  
   93.40000n    999.9601m  
   93.50000n    999.9601m  
   93.60000n    999.9601m  
   93.70000n    999.9601m  
   93.80000n    999.9601m  
   93.90000n    999.9601m  
   94.00000n    999.9601m  
   94.10000n    999.9601m  
   94.20000n    999.9601m  
   94.30000n    999.9601m  
   94.40000n    999.9601m  
   94.50000n    999.9601m  
   94.60000n    999.9601m  
   94.70000n    999.9601m  
   94.80000n    999.9601m  
   94.90000n    999.9601m  
   95.00000n    999.9601m  
   95.10000n    999.9601m  
   95.20000n    999.9601m  
   95.30000n    999.9601m  
   95.40000n    999.9601m  
   95.50000n    999.9601m  
   95.60000n    999.9601m  
   95.70000n    999.9601m  
   95.80000n    999.9601m  
   95.90000n    999.9601m  
   96.00000n    999.9601m  
   96.10000n    999.9601m  
   96.20000n    999.9601m  
   96.30000n    999.9601m  
   96.40000n    999.9601m  
   96.50000n    999.9601m  
   96.60000n    999.9601m  
   96.70000n    999.9601m  
   96.80000n    999.9601m  
   96.90000n    999.9601m  
   97.00000n    999.9601m  
   97.10000n    999.9601m  
   97.20000n    999.9601m  
   97.30000n    999.9601m  
   97.40000n    999.9601m  
   97.50000n    999.9601m  
   97.60000n    999.9601m  
   97.70000n    999.9601m  
   97.80000n    999.9601m  
   97.90000n    999.9601m  
   98.00000n    999.9601m  
   98.10000n    999.9601m  
   98.20000n    999.9601m  
   98.30000n    999.9601m  
   98.40000n    999.9601m  
   98.50000n    999.9601m  
   98.60000n    999.9601m  
   98.70000n    999.9601m  
   98.80000n    999.9601m  
   98.90000n    999.9601m  
   99.00000n    999.9601m  
   99.10000n    999.9601m  
   99.20000n    999.9601m  
   99.30000n    999.9601m  
   99.40000n    999.9601m  
   99.50000n    999.9601m  
   99.60000n    999.9601m  
   99.70000n    999.9601m  
   99.80000n    999.9601m  
   99.90000n    999.9601m  
  100.00000n    999.9601m  
  100.10000n    822.7858m  
  100.20000n    642.9377m  
  100.30000n    513.3575m  
  100.40000n    404.6256m  
  100.50000n    295.8936m  
  100.60000n    187.1617m  
  100.70000n     78.4297m  
  100.80000n     32.3681m  
  100.90000n      4.0525m  
  101.00000n     -1.1440m  
  101.10000n     -2.1190m  
  101.20000n     -1.6585m  
  101.30000n     -1.1981m  
  101.40000n   -737.6034u  
  101.50000n   -277.1513u  
  101.60000n    183.3009u  
  101.70000n    643.7530u  
  101.80000n      1.1042m  
  101.90000n      1.0071m  
  102.00000n    545.9849u  
  102.10000n     84.8225u  
  102.20000n   -150.4908u  
  102.30000n   -103.5849u  
  102.40000n    -56.6790u  
  102.50000n     -9.7731u  
  102.60000n     37.1328u  
  102.70000n     84.0387u  
  102.80000n     81.3586u  
  102.90000n     73.9170u  
  103.00000n     66.4755u  
  103.10000n     59.0340u  
  103.20000n     51.5925u  
  103.30000n     44.1510u  
  103.40000n     36.7094u  
  103.50000n     29.2679u  
  103.60000n     21.8264u  
  103.70000n     14.3849u  
  103.80000n      6.9433u  
  103.90000n   -498.1868n  
  104.00000n     -7.9397u  
  104.10000n    -15.3812u  
  104.20000n    -12.3425u  
  104.30000n     -7.9588u  
  104.40000n     -3.5752u  
  104.50000n    808.4440n  
  104.60000n      5.1921u  
  104.70000n      9.5757u  
  104.80000n     13.9594u  
  104.90000n     18.3430u  
  105.00000n     22.7266u  
  105.10000n     27.1103u  
  105.20000n     31.4939u  
  105.30000n     35.8776u  
  105.40000n     40.2612u  
  105.50000n     44.6448u  
  105.60000n     49.0285u  
  105.70000n     53.4121u  
  105.80000n     53.1953u  
  105.90000n     52.0442u  
  106.00000n     50.8930u  
  106.10000n     49.7419u  
  106.20000n     48.5907u  
  106.30000n     47.4396u  
  106.40000n     46.2885u  
  106.50000n     45.1373u  
  106.60000n     43.9862u  
  106.70000n     42.8350u  
  106.80000n     41.6839u  
  106.90000n     40.5328u  
  107.00000n     39.3816u  
  107.10000n     38.2305u  
  107.20000n     37.0793u  
  107.30000n     35.9282u  
  107.40000n     34.7770u  
  107.50000n     33.6259u  
  107.60000n     32.4748u  
  107.70000n     31.3236u  
  107.80000n     30.1725u  
  107.90000n     29.0213u  
  108.00000n     27.8702u  
  108.10000n     26.7190u  
  108.20000n     25.5679u  
  108.30000n     24.4168u  
  108.40000n     23.2656u  
  108.50000n     22.1145u  
  108.60000n     20.9633u  
  108.70000n     19.8122u  
  108.80000n     18.6611u  
  108.90000n     17.5099u  
  109.00000n     16.3588u  
  109.10000n     15.2076u  
  109.20000n     14.0565u  
  109.30000n     12.9053u  
  109.40000n     11.7542u  
  109.50000n     10.6031u  
  109.60000n      9.4519u  
  109.70000n      8.3008u  
  109.80000n      7.1496u  
  109.90000n      5.9985u  
  110.00000n      4.8473u  
  110.10000n      3.6962u  
  110.20000n      2.5451u  
  110.30000n      1.3939u  
  110.40000n    242.7786n  
  110.50000n   -908.3636n  
  110.60000n   -838.8812n  
  110.70000n   -234.2820n  
  110.80000n    370.3172n  
  110.90000n    974.9163n  
  111.00000n      1.5795u  
  111.10000n      2.1841u  
  111.20000n      2.7887u  
  111.30000n      3.3933u  
  111.40000n      3.9979u  
  111.50000n      4.6025u  
  111.60000n      5.2071u  
  111.70000n      5.8117u  
  111.80000n      6.4163u  
  111.90000n      7.0209u  
  112.00000n      7.6255u  
  112.10000n      8.2301u  
  112.20000n      8.8347u  
  112.30000n      9.4393u  
  112.40000n     10.0439u  
  112.50000n     10.6485u  
  112.60000n     11.2531u  
  112.70000n     11.8577u  
  112.80000n     12.4623u  
  112.90000n     13.0669u  
  113.00000n     13.6715u  
  113.10000n     14.2761u  
  113.20000n     14.8807u  
  113.30000n     15.4853u  
  113.40000n     16.0899u  
  113.50000n     16.6945u  
  113.60000n     17.2991u  
  113.70000n     17.9037u  
  113.80000n     18.5083u  
  113.90000n     19.1129u  
  114.00000n     19.7175u  
  114.10000n     20.3221u  
  114.20000n     20.9267u  
  114.30000n     21.5313u  
  114.40000n     22.1359u  
  114.50000n     22.7405u  
  114.60000n     23.3451u  
  114.70000n     23.9497u  
  114.80000n     24.5543u  
  114.90000n     25.1589u  
  115.00000n     25.7635u  
  115.10000n     26.3681u  
  115.20000n     26.9727u  
  115.30000n     27.5773u  
  115.40000n     28.1819u  
  115.50000n     28.7865u  
  115.60000n     29.3911u  
  115.70000n     29.9957u  
  115.80000n     30.6003u  
  115.90000n     31.2049u  
  116.00000n     31.8095u  
  116.10000n     32.4141u  
  116.20000n     33.0187u  
  116.30000n     33.6233u  
  116.40000n     34.2279u  
  116.50000n     34.8325u  
  116.60000n     35.4371u  
  116.70000n     36.0417u  
  116.80000n     36.6463u  
  116.90000n     37.2509u  
  117.00000n     37.8555u  
  117.10000n     38.4601u  
  117.20000n     39.0647u  
  117.30000n     39.6693u  
  117.40000n     40.2739u  
  117.50000n     40.8785u  
  117.60000n     41.4831u  
  117.70000n     42.0877u  
  117.80000n     42.6923u  
  117.90000n     43.2969u  
  118.00000n     43.9015u  
  118.10000n     44.5061u  
  118.20000n     45.1107u  
  118.30000n     45.7153u  
  118.40000n     46.3199u  
  118.50000n     46.9245u  
  118.60000n     47.5291u  
  118.70000n     48.1337u  
  118.80000n     48.7383u  
  118.90000n     49.3429u  
  119.00000n     47.2376u  
  119.10000n     43.5714u  
  119.20000n     39.9053u  
  119.30000n     36.2391u  
  119.40000n     32.5729u  
  119.50000n     28.9067u  
  119.60000n     25.2405u  
  119.70000n     21.5743u  
  119.80000n     17.9081u  
  119.90000n     14.2419u  
  120.00000n     10.5757u  
  120.10000n    132.5213m  
  120.20000n    280.4330m  
  120.30000n    394.7695m  
  120.40000n    497.8762m  
  120.50000n    600.9829m  
  120.60000n    704.0896m  
  120.70000n    795.2633m  
  120.80000n    849.6164m  
  120.90000n    903.9696m  
  121.00000n    954.9830m  
  121.10000n    969.1227m  
  121.20000n    983.2624m  
  121.30000n    997.4021m  
  121.40000n      1.0063   
  121.50000n      1.0148   
  121.60000n      1.0233   
  121.70000n      1.0162   
  121.80000n      1.0082   
  121.90000n      1.0002   
  122.00000n      1.0000   
  122.10000n      1.0000   
  122.20000n      1.0000   
  122.30000n    999.9928m  
  122.40000n    999.9829m  
  122.50000n    999.9784m  
  122.60000n    999.9740m  
  122.70000n    999.9695m  
  122.80000n    999.9650m  
  122.90000n    999.9606m  
  123.00000n    999.9604m  
  123.10000n    999.9603m  
  123.20000n    999.9603m  
  123.30000n    999.9603m  
  123.40000n    999.9602m  
  123.50000n    999.9602m  
  123.60000n    999.9601m  
  123.70000n    999.9601m  
  123.80000n    999.9600m  
  123.90000n    999.9600m  
  124.00000n    999.9599m  
  124.10000n    999.9599m  
  124.20000n    999.9598m  
  124.30000n    999.9598m  
  124.40000n    999.9598m  
  124.50000n    999.9597m  
  124.60000n    999.9597m  
  124.70000n    999.9597m  
  124.80000n    999.9597m  
  124.90000n    999.9597m  
  125.00000n    999.9597m  
  125.10000n    999.9597m  
  125.20000n    999.9598m  
  125.30000n    999.9598m  
  125.40000n    999.9598m  
  125.50000n    999.9598m  
  125.60000n    999.9598m  
  125.70000n    999.9598m  
  125.80000n    999.9599m  
  125.90000n    999.9599m  
  126.00000n    999.9599m  
  126.10000n    999.9599m  
  126.20000n    999.9599m  
  126.30000n    999.9599m  
  126.40000n    999.9600m  
  126.50000n    999.9600m  
  126.60000n    999.9600m  
  126.70000n    999.9600m  
  126.80000n    999.9600m  
  126.90000n    999.9601m  
  127.00000n    999.9601m  
  127.10000n    999.9601m  
  127.20000n    999.9601m  
  127.30000n    999.9601m  
  127.40000n    999.9601m  
  127.50000n    999.9602m  
  127.60000n    999.9602m  
  127.70000n    999.9602m  
  127.80000n    999.9602m  
  127.90000n    999.9602m  
  128.00000n    999.9602m  
  128.10000n    999.9603m  
  128.20000n    999.9603m  
  128.30000n    999.9603m  
  128.40000n    999.9603m  
  128.50000n    999.9603m  
  128.60000n    999.9603m  
  128.70000n    999.9604m  
  128.80000n    999.9604m  
  128.90000n    999.9604m  
  129.00000n    999.9604m  
  129.10000n    999.9604m  
  129.20000n    999.9605m  
  129.30000n    999.9605m  
  129.40000n    999.9605m  
  129.50000n    999.9605m  
  129.60000n    999.9605m  
  129.70000n    999.9605m  
  129.80000n    999.9606m  
  129.90000n    999.9606m  
  130.00000n    999.9606m  
  130.10000n    999.9606m  
  130.20000n    999.9606m  
  130.30000n    999.9606m  
  130.40000n    999.9606m  
  130.50000n    999.9606m  
  130.60000n    999.9606m  
  130.70000n    999.9605m  
  130.80000n    999.9605m  
  130.90000n    999.9605m  
  131.00000n    999.9605m  
  131.10000n    999.9605m  
  131.20000n    999.9605m  
  131.30000n    999.9605m  
  131.40000n    999.9605m  
  131.50000n    999.9605m  
  131.60000n    999.9605m  
  131.70000n    999.9605m  
  131.80000n    999.9605m  
  131.90000n    999.9604m  
  132.00000n    999.9604m  
  132.10000n    999.9604m  
  132.20000n    999.9604m  
  132.30000n    999.9604m  
  132.40000n    999.9604m  
  132.50000n    999.9604m  
  132.60000n    999.9604m  
  132.70000n    999.9604m  
  132.80000n    999.9604m  
  132.90000n    999.9604m  
  133.00000n    999.9603m  
  133.10000n    999.9603m  
  133.20000n    999.9603m  
  133.30000n    999.9603m  
  133.40000n    999.9603m  
  133.50000n    999.9603m  
  133.60000n    999.9603m  
  133.70000n    999.9603m  
  133.80000n    999.9603m  
  133.90000n    999.9603m  
  134.00000n    999.9603m  
  134.10000n    999.9603m  
  134.20000n    999.9602m  
  134.30000n    999.9602m  
  134.40000n    999.9602m  
  134.50000n    999.9602m  
  134.60000n    999.9602m  
  134.70000n    999.9602m  
  134.80000n    999.9602m  
  134.90000n    999.9602m  
  135.00000n    999.9602m  
  135.10000n    999.9602m  
  135.20000n    999.9602m  
  135.30000n    999.9601m  
  135.40000n    999.9601m  
  135.50000n    999.9601m  
  135.60000n    999.9601m  
  135.70000n    999.9601m  
  135.80000n    999.9601m  
  135.90000n    999.9601m  
  136.00000n    999.9601m  
  136.10000n    999.9601m  
  136.20000n    999.9601m  
  136.30000n    999.9601m  
  136.40000n    999.9601m  
  136.50000n    999.9600m  
  136.60000n    999.9600m  
  136.70000n    999.9600m  
  136.80000n    999.9600m  
  136.90000n    999.9600m  
  137.00000n    999.9600m  
  137.10000n    999.9600m  
  137.20000n    999.9600m  
  137.30000n    999.9600m  
  137.40000n    999.9600m  
  137.50000n    999.9600m  
  137.60000n    999.9599m  
  137.70000n    999.9599m  
  137.80000n    999.9599m  
  137.90000n    999.9599m  
  138.00000n    999.9599m  
  138.10000n    999.9599m  
  138.20000n    999.9599m  
  138.30000n    999.9599m  
  138.40000n    999.9599m  
  138.50000n    999.9599m  
  138.60000n    999.9599m  
  138.70000n    999.9599m  
  138.80000n    999.9598m  
  138.90000n    999.9598m  
  139.00000n    999.9598m  
  139.10000n    999.9598m  
  139.20000n    999.9598m  
  139.30000n    999.9598m  
  139.40000n    999.9598m  
  139.50000n    999.9598m  
  139.60000n    999.9598m  
  139.70000n    999.9598m  
  139.80000n    999.9598m  
  139.90000n    999.9597m  
  140.00000n    999.9597m  
  140.10000n    999.9597m  
  140.20000n    999.9597m  
  140.30000n    999.9598m  
  140.40000n    999.9598m  
  140.50000n    999.9598m  
  140.60000n    999.9598m  
  140.70000n    999.9598m  
  140.80000n    999.9598m  
  140.90000n    999.9598m  
  141.00000n    999.9598m  
  141.10000n    999.9598m  
  141.20000n    999.9598m  
  141.30000n    999.9598m  
  141.40000n    999.9598m  
  141.50000n    999.9598m  
  141.60000n    999.9599m  
  141.70000n    999.9599m  
  141.80000n    999.9599m  
  141.90000n    999.9599m  
  142.00000n    999.9599m  
  142.10000n    999.9599m  
  142.20000n    999.9599m  
  142.30000n    999.9599m  
  142.40000n    999.9599m  
  142.50000n    999.9599m  
  142.60000n    999.9599m  
  142.70000n    999.9599m  
  142.80000n    999.9599m  
  142.90000n    999.9600m  
  143.00000n    999.9600m  
  143.10000n    999.9600m  
  143.20000n    999.9600m  
  143.30000n    999.9600m  
  143.40000n    999.9600m  
  143.50000n    999.9600m  
  143.60000n    999.9600m  
  143.70000n    999.9600m  
  143.80000n    999.9600m  
  143.90000n    999.9600m  
  144.00000n    999.9600m  
  144.10000n    999.9600m  
  144.20000n    999.9601m  
  144.30000n    999.9601m  
  144.40000n    999.9601m  
  144.50000n    999.9601m  
  144.60000n    999.9601m  
  144.70000n    999.9601m  
  144.80000n    999.9601m  
  144.90000n    999.9601m  
  145.00000n    999.9601m  
  145.10000n    999.9601m  
  145.20000n    999.9601m  
  145.30000n    999.9601m  
  145.40000n    999.9602m  
  145.50000n    999.9602m  
  145.60000n    999.9602m  
  145.70000n    999.9602m  
  145.80000n    999.9602m  
  145.90000n    999.9602m  
  146.00000n    999.9602m  
  146.10000n    999.9602m  
  146.20000n    999.9602m  
  146.30000n    999.9602m  
  146.40000n    999.9602m  
  146.50000n    999.9602m  
  146.60000n    999.9602m  
  146.70000n    999.9603m  
  146.80000n    999.9603m  
  146.90000n    999.9603m  
  147.00000n    999.9603m  
  147.10000n    999.9603m  
  147.20000n    999.9603m  
  147.30000n    999.9603m  
  147.40000n    999.9603m  
  147.50000n    999.9603m  
  147.60000n    999.9603m  
  147.70000n    999.9603m  
  147.80000n    999.9603m  
  147.90000n    999.9603m  
  148.00000n    999.9604m  
  148.10000n    999.9604m  
  148.20000n    999.9604m  
  148.30000n    999.9604m  
  148.40000n    999.9604m  
  148.50000n    999.9604m  
  148.60000n    999.9604m  
  148.70000n    999.9604m  
  148.80000n    999.9604m  
  148.90000n    999.9604m  
  149.00000n    999.9604m  
  149.10000n    999.9604m  
  149.20000n    999.9604m  
  149.30000n    999.9605m  
  149.40000n    999.9605m  
  149.50000n    999.9605m  
  149.60000n    999.9605m  
  149.70000n    999.9605m  
  149.80000n    999.9605m  
  149.90000n    999.9605m  
  150.00000n    999.9605m  
  150.10000n    999.9605m  
  150.20000n    999.9605m  
  150.30000n    999.9605m  
  150.40000n    999.9605m  
  150.50000n    999.9605m  
  150.60000n    999.9605m  
  150.70000n    999.9605m  
  150.80000n    999.9605m  
  150.90000n    999.9605m  
  151.00000n    999.9605m  
  151.10000n    999.9604m  
  151.20000n    999.9604m  
  151.30000n    999.9604m  
  151.40000n    999.9604m  
  151.50000n    999.9604m  
  151.60000n    999.9604m  
  151.70000n    999.9604m  
  151.80000n    999.9604m  
  151.90000n    999.9604m  
  152.00000n    999.9604m  
  152.10000n    999.9604m  
  152.20000n    999.9604m  
  152.30000n    999.9604m  
  152.40000n    999.9604m  
  152.50000n    999.9603m  
  152.60000n    999.9603m  
  152.70000n    999.9603m  
  152.80000n    999.9603m  
  152.90000n    999.9603m  
  153.00000n    999.9603m  
  153.10000n    999.9603m  
  153.20000n    999.9603m  
  153.30000n    999.9603m  
  153.40000n    999.9603m  
  153.50000n    999.9603m  
  153.60000n    999.9603m  
  153.70000n    999.9603m  
  153.80000n    999.9603m  
  153.90000n    999.9602m  
  154.00000n    999.9602m  
  154.10000n    999.9602m  
  154.20000n    999.9602m  
  154.30000n    999.9602m  
  154.40000n    999.9602m  
  154.50000n    999.9602m  
  154.60000n    999.9602m  
  154.70000n    999.9602m  
  154.80000n    999.9602m  
  154.90000n    999.9602m  
  155.00000n    999.9602m  
  155.10000n    999.9602m  
  155.20000n    999.9602m  
  155.30000n    999.9601m  
  155.40000n    999.9601m  
  155.50000n    999.9601m  
  155.60000n    999.9601m  
  155.70000n    999.9601m  
  155.80000n    999.9601m  
  155.90000n    999.9601m  
  156.00000n    999.9601m  
  156.10000n    999.9601m  
  156.20000n    999.9601m  
  156.30000n    999.9601m  
  156.40000n    999.9601m  
  156.50000n    999.9601m  
  156.60000n    999.9601m  
  156.70000n    999.9601m  
  156.80000n    999.9600m  
  156.90000n    999.9600m  
  157.00000n    999.9600m  
  157.10000n    999.9600m  
  157.20000n    999.9600m  
  157.30000n    999.9600m  
  157.40000n    999.9600m  
  157.50000n    999.9600m  
  157.60000n    999.9600m  
  157.70000n    999.9600m  
  157.80000n    999.9600m  
  157.90000n    999.9600m  
  158.00000n    999.9600m  
  158.10000n    999.9600m  
  158.20000n    999.9599m  
  158.30000n    999.9599m  
  158.40000n    999.9599m  
  158.50000n    999.9599m  
  158.60000n    999.9599m  
  158.70000n    999.9599m  
  158.80000n    999.9599m  
  158.90000n    999.9599m  
  159.00000n    999.9599m  
  159.10000n    999.9599m  
  159.20000n    999.9599m  
  159.30000n    999.9599m  
  159.40000n    999.9599m  
  159.50000n    999.9599m  
  159.60000n    999.9598m  
  159.70000n    999.9598m  
  159.80000n    999.9598m  
  159.90000n    999.9598m  
  160.00000n    999.9598m  
  160.10000n    999.9598m  
  160.20000n    999.9598m  
  160.30000n    999.9598m  
  160.40000n    999.9598m  
  160.50000n    999.9598m  
  160.60000n    999.9598m  
  160.70000n    999.9599m  
  160.80000n    999.9599m  
  160.90000n    999.9599m  
  161.00000n    999.9599m  
  161.10000n    999.9599m  
  161.20000n    999.9599m  
  161.30000n    999.9599m  
  161.40000n    999.9599m  
  161.50000n    999.9599m  
  161.60000n    999.9599m  
  161.70000n    999.9599m  
  161.80000n    999.9599m  
  161.90000n    999.9599m  
  162.00000n    999.9599m  
  162.10000n    999.9599m  
  162.20000n    999.9599m  
  162.30000n    999.9600m  
  162.40000n    999.9600m  
  162.50000n    999.9600m  
  162.60000n    999.9600m  
  162.70000n    999.9600m  
  162.80000n    999.9600m  
  162.90000n    999.9600m  
  163.00000n    999.9600m  
  163.10000n    999.9600m  
  163.20000n    999.9600m  
  163.30000n    999.9600m  
  163.40000n    999.9600m  
  163.50000n    999.9600m  
  163.60000n    999.9600m  
  163.70000n    999.9600m  
  163.80000n    999.9600m  
  163.90000n    999.9601m  
  164.00000n    999.9601m  
  164.10000n    999.9601m  
  164.20000n    999.9601m  
  164.30000n    999.9601m  
  164.40000n    999.9601m  
  164.50000n    999.9601m  
  164.60000n    999.9601m  
  164.70000n    999.9601m  
  164.80000n    999.9601m  
  164.90000n    999.9601m  
  165.00000n    999.9601m  
  165.10000n    999.9601m  
  165.20000n    999.9601m  
  165.30000n    999.9601m  
  165.40000n    999.9602m  
  165.50000n    999.9602m  
  165.60000n    999.9602m  
  165.70000n    999.9602m  
  165.80000n    999.9602m  
  165.90000n    999.9602m  
  166.00000n    999.9602m  
  166.10000n    999.9602m  
  166.20000n    999.9602m  
  166.30000n    999.9602m  
  166.40000n    999.9602m  
  166.50000n    999.9602m  
  166.60000n    999.9602m  
  166.70000n    999.9602m  
  166.80000n    999.9602m  
  166.90000n    999.9602m  
  167.00000n    999.9603m  
  167.10000n    999.9603m  
  167.20000n    999.9603m  
  167.30000n    999.9603m  
  167.40000n    999.9603m  
  167.50000n    999.9603m  
  167.60000n    999.9603m  
  167.70000n    999.9603m  
  167.80000n    999.9603m  
  167.90000n    999.9603m  
  168.00000n    999.9603m  
  168.10000n    999.9603m  
  168.20000n    999.9603m  
  168.30000n    999.9603m  
  168.40000n    999.9603m  
  168.50000n    999.9603m  
  168.60000n    999.9604m  
  168.70000n    999.9604m  
  168.80000n    999.9604m  
  168.90000n    999.9604m  
  169.00000n    999.9604m  
  169.10000n    999.9604m  
  169.20000n    999.9604m  
  169.30000n    999.9604m  
  169.40000n    999.9604m  
  169.50000n    999.9604m  
  169.60000n    999.9604m  
  169.70000n    999.9604m  
  169.80000n    999.9604m  
  169.90000n    999.9604m  
  170.00000n    999.9604m  
  170.10000n    999.9604m  
  170.20000n    999.9604m  
  170.30000n    999.9604m  
  170.40000n    999.9604m  
  170.50000n    999.9604m  
  170.60000n    999.9604m  
  170.70000n    999.9604m  
  170.80000n    999.9604m  
  170.90000n    999.9604m  
  171.00000n    999.9604m  
  171.10000n    999.9604m  
  171.20000n    999.9604m  
  171.30000n    999.9604m  
  171.40000n    999.9604m  
  171.50000n    999.9604m  
  171.60000n    999.9604m  
  171.70000n    999.9604m  
  171.80000n    999.9603m  
  171.90000n    999.9603m  
  172.00000n    999.9603m  
  172.10000n    999.9603m  
  172.20000n    999.9603m  
  172.30000n    999.9603m  
  172.40000n    999.9603m  
  172.50000n    999.9603m  
  172.60000n    999.9603m  
  172.70000n    999.9603m  
  172.80000n    999.9603m  
  172.90000n    999.9603m  
  173.00000n    999.9603m  
  173.10000n    999.9603m  
  173.20000n    999.9603m  
  173.30000n    999.9603m  
  173.40000n    999.9603m  
  173.50000n    999.9603m  
  173.60000n    999.9602m  
  173.70000n    999.9602m  
  173.80000n    999.9602m  
  173.90000n    999.9602m  
  174.00000n    999.9602m  
  174.10000n    999.9602m  
  174.20000n    999.9602m  
  174.30000n    999.9602m  
  174.40000n    999.9602m  
  174.50000n    999.9602m  
  174.60000n    999.9602m  
  174.70000n    999.9602m  
  174.80000n    999.9602m  
  174.90000n    999.9602m  
  175.00000n    999.9602m  
  175.10000n    999.9602m  
  175.20000n    999.9602m  
  175.30000n    999.9601m  
  175.40000n    999.9601m  
  175.50000n    999.9601m  
  175.60000n    999.9601m  
  175.70000n    999.9601m  
  175.80000n    999.9601m  
  175.90000n    999.9601m  
  176.00000n    999.9601m  
  176.10000n    999.9601m  
  176.20000n    999.9601m  
  176.30000n    999.9601m  
  176.40000n    999.9601m  
  176.50000n    999.9601m  
  176.60000n    999.9601m  
  176.70000n    999.9601m  
  176.80000n    999.9601m  
  176.90000n    999.9601m  
  177.00000n    999.9601m  
  177.10000n    999.9600m  
  177.20000n    999.9600m  
  177.30000n    999.9600m  
  177.40000n    999.9600m  
  177.50000n    999.9600m  
  177.60000n    999.9600m  
  177.70000n    999.9600m  
  177.80000n    999.9600m  
  177.90000n    999.9600m  
  178.00000n    999.9600m  
  178.10000n    999.9600m  
  178.20000n    999.9600m  
  178.30000n    999.9600m  
  178.40000n    999.9600m  
  178.50000n    999.9600m  
  178.60000n    999.9600m  
  178.70000n    999.9600m  
  178.80000n    999.9599m  
  178.90000n    999.9599m  
  179.00000n    999.9599m  
  179.10000n    999.9599m  
  179.20000n    999.9599m  
  179.30000n    999.9599m  
  179.40000n    999.9599m  
  179.50000n    999.9599m  
  179.60000n    999.9599m  
  179.70000n    999.9599m  
  179.80000n    999.9599m  
  179.90000n    999.9599m  
  180.00000n    999.9599m  
  180.10000n    999.9599m  
  180.20000n    999.9599m  
  180.30000n    999.9599m  
  180.40000n    999.9599m  
  180.50000n    999.9599m  
  180.60000n    999.9599m  
  180.70000n    999.9599m  
  180.80000n    999.9599m  
  180.90000n    999.9599m  
  181.00000n    999.9599m  
  181.10000n    999.9599m  
  181.20000n    999.9599m  
  181.30000n    999.9599m  
  181.40000n    999.9599m  
  181.50000n    999.9600m  
  181.60000n    999.9600m  
  181.70000n    999.9600m  
  181.80000n    999.9600m  
  181.90000n    999.9600m  
  182.00000n    999.9600m  
  182.10000n    999.9600m  
  182.20000n    999.9600m  
  182.30000n    999.9600m  
  182.40000n    999.9600m  
  182.50000n    999.9600m  
  182.60000n    999.9600m  
  182.70000n    999.9600m  
  182.80000n    999.9600m  
  182.90000n    999.9600m  
  183.00000n    999.9600m  
  183.10000n    999.9600m  
  183.20000n    999.9600m  
  183.30000n    999.9600m  
  183.40000n    999.9600m  
  183.50000n    999.9601m  
  183.60000n    999.9601m  
  183.70000n    999.9601m  
  183.80000n    999.9601m  
  183.90000n    999.9601m  
  184.00000n    999.9601m  
  184.10000n    999.9601m  
  184.20000n    999.9601m  
  184.30000n    999.9601m  
  184.40000n    999.9601m  
  184.50000n    999.9601m  
  184.60000n    999.9601m  
  184.70000n    999.9601m  
  184.80000n    999.9601m  
  184.90000n    999.9601m  
  185.00000n    999.9601m  
  185.10000n    999.9601m  
  185.20000n    999.9601m  
  185.30000n    999.9601m  
  185.40000n    999.9601m  
  185.50000n    999.9602m  
  185.60000n    999.9602m  
  185.70000n    999.9602m  
  185.80000n    999.9602m  
  185.90000n    999.9602m  
  186.00000n    999.9602m  
  186.10000n    999.9602m  
  186.20000n    999.9602m  
  186.30000n    999.9602m  
  186.40000n    999.9602m  
  186.50000n    999.9602m  
  186.60000n    999.9602m  
  186.70000n    999.9602m  
  186.80000n    999.9602m  
  186.90000n    999.9602m  
  187.00000n    999.9602m  
  187.10000n    999.9602m  
  187.20000n    999.9602m  
  187.30000n    999.9602m  
  187.40000n    999.9603m  
  187.50000n    999.9603m  
  187.60000n    999.9603m  
  187.70000n    999.9603m  
  187.80000n    999.9603m  
  187.90000n    999.9603m  
  188.00000n    999.9603m  
  188.10000n    999.9603m  
  188.20000n    999.9603m  
  188.30000n    999.9603m  
  188.40000n    999.9603m  
  188.50000n    999.9603m  
  188.60000n    999.9603m  
  188.70000n    999.9603m  
  188.80000n    999.9603m  
  188.90000n    999.9603m  
  189.00000n    999.9603m  
  189.10000n    999.9603m  
  189.20000n    999.9603m  
  189.30000n    999.9603m  
  189.40000n    999.9604m  
  189.50000n    999.9604m  
  189.60000n    999.9604m  
  189.70000n    999.9604m  
  189.80000n    999.9604m  
  189.90000n    999.9604m  
  190.00000n    999.9604m  
  190.10000n    999.9604m  
  190.20000n    999.9604m  
  190.30000n    999.9604m  
  190.40000n    999.9604m  
  190.50000n    999.9604m  
  190.60000n    999.9604m  
  190.70000n    999.9604m  
  190.80000n    999.9604m  
  190.90000n    999.9603m  
  191.00000n    999.9603m  
  191.10000n    999.9603m  
  191.20000n    999.9603m  
  191.30000n    999.9603m  
  191.40000n    999.9603m  
  191.50000n    999.9603m  
  191.60000n    999.9603m  
  191.70000n    999.9603m  
  191.80000n    999.9603m  
  191.90000n    999.9603m  
  192.00000n    999.9603m  
  192.10000n    999.9603m  
  192.20000n    999.9603m  
  192.30000n    999.9603m  
  192.40000n    999.9603m  
  192.50000n    999.9603m  
  192.60000n    999.9603m  
  192.70000n    999.9603m  
  192.80000n    999.9603m  
  192.90000n    999.9603m  
  193.00000n    999.9603m  
  193.10000n    999.9602m  
  193.20000n    999.9602m  
  193.30000n    999.9602m  
  193.40000n    999.9602m  
  193.50000n    999.9602m  
  193.60000n    999.9602m  
  193.70000n    999.9602m  
  193.80000n    999.9602m  
  193.90000n    999.9602m  
  194.00000n    999.9602m  
  194.10000n    999.9602m  
  194.20000n    999.9602m  
  194.30000n    999.9602m  
  194.40000n    999.9602m  
  194.50000n    999.9602m  
  194.60000n    999.9602m  
  194.70000n    999.9602m  
  194.80000n    999.9602m  
  194.90000n    999.9602m  
  195.00000n    999.9602m  
  195.10000n    999.9602m  
  195.20000n    999.9602m  
  195.30000n    999.9601m  
  195.40000n    999.9601m  
  195.50000n    999.9601m  
  195.60000n    999.9601m  
  195.70000n    999.9601m  
  195.80000n    999.9601m  
  195.90000n    999.9601m  
  196.00000n    999.9601m  
  196.10000n    999.9601m  
  196.20000n    999.9601m  
  196.30000n    999.9601m  
  196.40000n    999.9601m  
  196.50000n    999.9601m  
  196.60000n    999.9601m  
  196.70000n    999.9601m  
  196.80000n    999.9601m  
  196.90000n    999.9601m  
  197.00000n    999.9601m  
  197.10000n    999.9601m  
  197.20000n    999.9601m  
  197.30000n    999.9601m  
  197.40000n    999.9600m  
  197.50000n    999.9600m  
  197.60000n    999.9600m  
  197.70000n    999.9600m  
  197.80000n    999.9600m  
  197.90000n    999.9600m  
  198.00000n    999.9600m  
  198.10000n    999.9600m  
  198.20000n    999.9600m  
  198.30000n    999.9600m  
  198.40000n    999.9600m  
  198.50000n    999.9600m  
  198.60000n    999.9600m  
  198.70000n    999.9600m  
  198.80000n    999.9600m  
  198.90000n    999.9600m  
  199.00000n    999.9600m  
  199.10000n    999.9600m  
  199.20000n    999.9600m  
  199.30000n    999.9600m  
  199.40000n    999.9600m  
  199.50000n    999.9600m  
  199.60000n    999.9599m  
  199.70000n    999.9599m  
  199.80000n    999.9599m  
  199.90000n    999.9599m  
  200.00000n    999.9599m  
y
   t_rise=  8.2167E-10  targ=  2.0900E-08   trig=  2.0079E-08
   t_fall=  5.9883E-10  targ=  6.5783E-10   trig=  5.9003E-11

          ***** job concluded
1****** HSPICE -- D-2010.03-SP1 32-BIT (May 26 2010) winnt ******               
 ******  
 first line of the netlist must be blank.

  ******  job statistics summary tnom=  25.000 temp=  27.000 *****

  ******  HSPICE Threads Information  ******

  Command Line Threads Count                  :     1
  Available CPU Count                         :     4
  Actual Model Evaluation(Load) Threads Count :     1
  Actual Solver Threads Count                 :     1


  ******  Circuit Statistics  ******
  # nodes       =      12 # elements   =       5
  # resistors   =       0 # capacitors =       1 # inductors   =       0
  # mutual_inds =       0 # vccs       =       0 # vcvs        =       0
  # cccs        =       0 # ccvs       =       0 # volt_srcs   =       2
  # curr_srcs   =       0 # diodes     =       0 # bjts        =       0
  # jfets       =       0 # mosfets    =       2 # U elements  =       0
  # T elements  =       0 # W elements =       0 # B elements  =       0
  # S elements  =       0 # P elements =       0 # va device   =       0


  ******  Runtime Statistics (seconds)  ******

  analysis           time    # points   tot. iter  conv.iter
  op point           0.01           1           4
  transient          0.04        2001         206          90 rev=         6
  readin             0.07
  errchk             0.01
  setup              0.01
  output             0.00


           total memory used          166  kbytes
           total cpu time            0.16 seconds
           total elapsed time        0.22 seconds
           job started at     20:39:16 11/04/2014
           job ended   at     20:39:16 11/04/2014


  lic: Release hspice token(s) 
