$DATA1 SOURCE='HSPICE' VERSION='D-2010.03-SP1 32-BIT'
.TITLE 'first line of the netlist must be blank.'
 t_rise           t_fall           temper           alter#            
  3.164e-10        2.336e-10         27.0000        1                 
