 ****** HSPICE -- D-2010.03-SP1 32-BIT (May 26 2010) winnt ******               
  Copyright (C) 2010 Synopsys, Inc. All Rights Reserved.                        
  Unpublished-rights reserved under US copyright laws.
  This program is protected by law and is subject to the 
  terms and conditions of the license agreement from Synopsys.
  Use of this program is your acceptance to be bound by the 
  license agreement. HSPICE is the trademark of Synopsys, Inc.
  Input File: d:\digital electronic\projects\ca_1\question_1_part_g_capacitance_
  lic:  
  lic: FLEXlm: v8.5b 
  lic: USER:   HP                   HOSTNAME: ProBook 
  lic: HOSTID: "00090faa0001 56db30007c95 16db30007c95 a4db30007c95 a45d36cb5ab9
  
  lic: Using FLEXlm license file: 
  lic: 27000@elena 
  lic: Checkout 1 hspice 
  lic: License/Maintenance for hspice will expire on 31-dec-2020/2007.9 
  lic: NODE LOCKED license on hostid "00090faa0001 56db30007c95 16db30007c95 a4d
 b
  lic:   
 Init: read install configuration file: C:\synopsys\Hspice_D-2010.03-SP1\meta.cfg
1****** HSPICE -- D-2010.03-SP1 32-BIT (May 26 2010) winnt ******               
 ******  
 first line of the netlist must be blank.

  ******  mos   model parameters tnom=  25.000 temp=  25.000 *****
 
Model Name: nmos  

 BSIM4 Model (Level 54)

    MOBMOD = 0
    BINUNIT = 1
    PARAMCHK = 1
    CAPMOD = 2
    DIOMOD = 1
    RDSMOD = 0
    TRNQSMOD = 0
    ACNQSMOD = 0
    RBODYMOD = 1
    RGATEMOD = 1
    PERMOD = 1
    GEOMOD = 1
    RGEOMOD = 0
    FNOIMOD = 1
    TNOIMOD = 0
    IGCMOD = 1
    IGBMOD = 1
    STIMOD = 0
    VERSION =      4 
    TOXREF = 1.75e-009 
    TOXE = 1.75e-009 
    TOXP = 1.1e-009 
    TOXM = 1.75e-009 
    DTOX = 6.5e-010 
    EPSROX =    3.9 
    CDSC =      0 
    CDSCB =      0 
    CDSCD =      0 
    CIT =      0 
    NFACTOR =    2.1 
    XJ = 1.4e-008 
    VSAT = 1.474e+005 
    A0 =      1 
    AGS = 1e-020 
    A1 =      0 
    A2 =      1 
    AT = 3.3e+004 
    KETA =   0.04 
    NSUB = 6e+016 
    NDEP = 3.28e+018 
    NSD = 2e+020 
    NGATE = 2e+020 
    GAMMA1 =      0 
    GAMMA2 =      0 
    VBX =      0 
    VBM =     -3 
    XT = 1.55e-007 
    K1 =  0.528 
    KT1 =  -0.11 
    KT1L =      0 
    KT2 =  0.022 
    K2 =   0.01 
    K3 =      0 
    K3B =      0 
    LPE0 =      0 
    LPEB =      0 
    DVTP0 = 1e-009 
    DVTP1 =    0.1 
    W0 = 2.5e-006 
    DVT0 =      1 
    DVT1 =      2 
    DVT2 = -0.032 
    DVT0W =      0 
    DVT1W =      0 
    DVT2W =      0 
    DROUT =    0.5 
    DSUB =    0.1 
    VTH0 =  0.469 
    EU =   1.67 
    UA = 6e-010 
    UA1 = 4.31e-009 
    UB = 1.2e-018 
    UB1 = 7.61e-018 
    UC =      0 
    UC1 = -5.6e-011 
    U0 = 0.04372 
    UTE =   -1.5 
    VOFF =  -0.13 
    VOFFL =      0 
    MINV =   0.05 
    FPROUT =    0.2 
    PDITS =   0.08 
    PDITSD =   0.23 
    PDITSL = 2.3e+006 
    DELTA =   0.01 
    RDSW =    155 
    RDSWMIN =      0 
    RDWMIN =      0 
    RSWMIN =      0 
    RDW =     85 
    RSW =     85 
    PRWG =      0 
    PRWB = 6.8e-011 
    PRT =      0 
    ETA0 = 0.0049 
    ETAB =      0 
    PCLM =   0.04 
    PDIBLC1 =  0.001 
    PDIBLC2 =  0.001 
    PDIBLCB = -0.005 
    PSCBE1 = 8.14e+008 
    PSCBE2 = 1e-007 
    PVAG = 1e-020 
    WR =      1 
    DWG =      0 
    DWB =      0 
    XW =      0 
    XWREF =      0 
    XL = -2e-008 
    XLREF = -2e-008 
    B0 =      0 
    B1 =      0 
    ALPHA0 =  0.074 
    ALPHA1 =  0.005 
    AGIDL = 0.0002 
    BGIDL = 2.1e+009 
    CGIDL = 0.0002 
    PHIN =      0 
    EGIDL =    0.8 
    AIGC =  0.012 
    BIGC = 0.0028 
    CIGC =  0.002 
    AIGSD =  0.012 
    BIGSD = 0.0028 
    CIGSD =  0.002 
    AIGBACC =  0.012 
    BIGBACC = 0.0028 
    CIGBACC =  0.002 
    AIGBINV =  0.014 
    BIGBINV =  0.004 
    CIGBINV =  0.004 
    NIGC =      1 
    NIGBINV =      3 
    NIGBACC =      1 
    NTOX =      1 
    EIGBINV =    1.1 
    PIGCD =      1 
    POXEDGE =      1 
    XRCRG1 =     12 
    TNOIA =    1.5 
    TNOIB =    3.5 
    NTNOI =      1 
    XRCRG2 =      5 
    BETA0 =     30 
    IJTHDFWD =   0.01 
    IJTHSFWD =   0.01 
    IJTHDREV =  0.001 
    IJTHSREV =  0.001 
    XJBVD =      1 
    XJBVS =      1 
    BVD =     10 
    BVS =     10 
    VFB =  -0.55 
    GBMIN = 1e-010 
    RBDB =     15 
    RBPB =      5 
    RBSB =     15 
    RBPS =     15 
    RBPD =     15 
    CGSL = 2.653e-010 
    CGDL = 2.653e-010 
    CKAPPAS =   0.03 
    CKAPPAD =   0.03 
    CF = 1.195e-010 
    CLC = 1e-007 
    CLE =    0.6 
    DWC = 5e-009 
    DLC = 3.75e-009 
    DLCIG = 3.75e-009 
    DWJ =      0 
    VFBCV =     -1 
    ACDE =      1 
    MOIN =     15 
    NOFF =    0.9 
    VOFFCV =   0.02 
    DMCG =      0 
    DMCI =      0 
    DMDG =      0 
    DMCGT =      0 
    XGW =      0 
    XGL =      0 
    RSHG =    0.4 
    NGCON =      1 
    TCJ =  0.001 
    TPB =  0.005 
    TCJSW =  0.001 
    TPBSW =  0.005 
    TCJSWG =  0.001 
    TPBSWG =  0.005 
    SK0 =      0 
    SK1 =      0 
    SK2 =      0 
    SL = 2e-006 
    SW = 2e-006 
    K =      0 
    TNOM =  300.1 
    CGSO = 1.1e-010 
    CGDO = 1.1e-010 
    CGBO = 2.56e-011 
    XPART =      0 
    RSH =      5 
    JSS = 0.0001 
    JSWS = 1e-011 
    JSWGS = 1e-010 
    PBS =      1 
    MJS =    0.5 
    PBSWS =      1 
    MJSWS =   0.33 
    CJS = 0.0005 
    CJSWS = 5e-010 
    NJS =      1 
    PBSWGS =      1 
    MJSWGS =   0.33 
    CJSWGS = 3e-010 
    XTIS =      3 
    JSD = 0.0001 
    JSWD = 1e-011 
    JSWGD = 1e-010 
    PBD =      1 
    MJD =    0.5 
    PBSWD =      1 
    MJSWD =   0.33 
    CJD = 0.0005 
    CJSWD = 5e-010 
    NJD =      1 
    PBSWGD =      1 
    MJSWGD =   0.33 
    CJSWGD = 5e-010 
    XTID =      3 
    LMLT =      1 
    WMLT =      1 
    LINT = 3.75e-009 
    LL =      0 
    LLC =      0 
    LLN =      1 
    LW =      0 
    LWC =      0 
    LWN =      1 
    LWL =      0 
    LWLC =      0 
    LMIN =      0 
    LMAX =      1 
    WINT = 5e-009 
    WL =      0 
    WLC =      0 
    WLN =      1 
    WW =      0 
    WWC =      0 
    WWN =      1 
    WWL =      0 
    WWLC =      0 
    WMIN =      0 
    WMAX =      1 
    NOIA = 6.25e+041 
    NOIB = 3.125e+026 
    NOIC = 8.75e+009 
    EM = 4.1e+007 
    EF =      1 
    AF =      1 
    KF =      0 
    TRS =      0 
    TRD =      0 
 

 
Model Name: pmos  

 BSIM4 Model (Level 54)

    MOBMOD = 0
    BINUNIT = 1
    PARAMCHK = 1
    CAPMOD = 2
    DIOMOD = 1
    RDSMOD = 0
    TRNQSMOD = 0
    ACNQSMOD = 0
    RBODYMOD = 1
    RGATEMOD = 1
    PERMOD = 1
    GEOMOD = 1
    RGEOMOD = 0
    FNOIMOD = 1
    TNOIMOD = 0
    IGCMOD = 1
    IGBMOD = 1
    STIMOD = 0
    VERSION =      4 
    TOXREF = 1.85e-009 
    TOXE = 1.85e-009 
    TOXP = 1.1e-009 
    TOXM = 1.85e-009 
    DTOX = 7.5e-010 
    EPSROX =    3.9 
    CDSC =      0 
    CDSCB =      0 
    CDSCD =      0 
    CIT =      0 
    NFACTOR =    2.1 
    XJ = 1.4e-008 
    VSAT = 7e+004 
    A0 =      1 
    AGS = 1e-020 
    A1 =      0 
    A2 =      1 
    AT = 3.3e+004 
    KETA = -0.047 
    NSUB = 6e+016 
    NDEP = 2.5e+018 
    NSD = 2e+020 
    NGATE = 2e+020 
    GAMMA1 =      0 
    GAMMA2 =      0 
    VBX =      0 
    VBM =     -3 
    XT = 1.55e-007 
    K1 =  0.488 
    KT1 =  -0.11 
    KT1L =      0 
    KT2 =  0.022 
    K2 =  -0.01 
    K3 =      0 
    K3B =      0 
    LPE0 =      0 
    LPEB =      0 
    DVTP0 = 1e-009 
    DVTP1 =   0.05 
    W0 = 2.5e-006 
    DVT0 =      1 
    DVT1 =      2 
    DVT2 = -0.032 
    DVT0W =      0 
    DVT1W =      0 
    DVT2W =      0 
    DROUT =   0.56 
    DSUB =    0.1 
    VTH0 = -0.418 
    EU =      1 
    UA = 2e-009 
    UA1 = 4.31e-009 
    UB = 5e-019 
    UB1 = 7.61e-018 
    UC =      0 
    UC1 = -5.6e-011 
    U0 = 0.00439 
    UTE =   -1.5 
    VOFF = -0.126 
    VOFFL =      0 
    MINV =   0.05 
    FPROUT =    0.2 
    PDITS =   0.08 
    PDITSD =   0.23 
    PDITSL = 2.3e+006 
    DELTA =   0.01 
    RDSW =    155 
    RDSWMIN =      0 
    RDWMIN =      0 
    RSWMIN =      0 
    RDW =     85 
    RSW =     85 
    PRWG = 3.22e-008 
    PRWB = 6.8e-011 
    PRT =      0 
    ETA0 = 0.0049 
    ETAB =      0 
    PCLM =   0.12 
    PDIBLC1 =  0.001 
    PDIBLC2 =  0.001 
    PDIBLCB = 3.4e-008 
    PSCBE1 = 8.14e+008 
    PSCBE2 = 9.58e-007 
    PVAG = 1e-020 
    WR =      1 
    DWG =      0 
    DWB =      0 
    XW =      0 
    XWREF =      0 
    XL = -2e-008 
    XLREF = -2e-008 
    B0 = -1e-020 
    B1 =      0 
    ALPHA0 =  0.074 
    ALPHA1 =  0.005 
    AGIDL = 0.0002 
    BGIDL = 2.1e+009 
    CGIDL = 0.0002 
    PHIN =      0 
    EGIDL =    0.8 
    AIGC =   0.69 
    BIGC = 0.0012 
    CIGC = 0.0008 
    AIGSD = 0.0087 
    BIGSD = 0.0012 
    CIGSD = 0.0008 
    AIGBACC =  0.012 
    BIGBACC = 0.0028 
    CIGBACC =  0.002 
    AIGBINV =  0.014 
    BIGBINV =  0.004 
    CIGBINV =  0.004 
    NIGC =      1 
    NIGBINV =      3 
    NIGBACC =      1 
    NTOX =      1 
    EIGBINV =    1.1 
    PIGCD =      1 
    POXEDGE =      1 
    XRCRG1 =     12 
    TNOIA =    1.5 
    TNOIB =    3.5 
    NTNOI =      1 
    XRCRG2 =      5 
    BETA0 =     30 
    IJTHDFWD =   0.01 
    IJTHSFWD =   0.01 
    IJTHDREV =  0.001 
    IJTHSREV =  0.001 
    XJBVD =      1 
    XJBVS =      1 
    BVD =     10 
    BVS =     10 
    VFB =   0.55 
    GBMIN = 1e-010 
    RBDB =     15 
    RBPB =      5 
    RBSB =     15 
    RBPS =     15 
    RBPD =     15 
    CGSL = 2.653e-010 
    CGDL = 2.653e-010 
    CKAPPAS =   0.03 
    CKAPPAD =   0.03 
    CF = 1.183e-010 
    CLC = 1e-007 
    CLE =    0.6 
    DWC = 5e-009 
    DLC = 3.75e-009 
    DLCIG = 3.75e-009 
    DWJ =      0 
    VFBCV =     -1 
    ACDE =      1 
    MOIN =     15 
    NOFF =    0.9 
    VOFFCV =   0.02 
    DMCG =      0 
    DMCI =      0 
    DMDG =      0 
    DMCGT =      0 
    XGW =      0 
    XGL =      0 
    RSHG =    0.4 
    NGCON =      1 
    TCJ =  0.001 
    TPB =  0.005 
    TCJSW =  0.001 
    TPBSW =  0.005 
    TCJSWG =  0.001 
    TPBSWG =  0.005 
    SK0 =      0 
    SK1 =      0 
    SK2 =      0 
    SL = 2e-006 
    SW = 2e-006 
    K =      0 
    TNOM =  300.1 
    CGSO = 1.1e-010 
    CGDO = 1.1e-010 
    CGBO = 2.56e-011 
    XPART =      0 
    RSH =      5 
    JSS = 0.0001 
    JSWS = 1e-011 
    JSWGS = 1e-010 
    PBS =      1 
    MJS =    0.5 
    PBSWS =      1 
    MJSWS =   0.33 
    CJS = 0.0005 
    CJSWS = 5e-010 
    NJS =      1 
    PBSWGS =      1 
    MJSWGS =   0.33 
    CJSWGS = 3e-010 
    XTIS =      3 
    JSD = 0.0001 
    JSWD = 1e-011 
    JSWGD = 1e-010 
    PBD =      1 
    MJD =    0.5 
    PBSWD =      1 
    MJSWD =   0.33 
    CJD = 0.0005 
    CJSWD = 5e-010 
    NJD =      1 
    PBSWGD =      1 
    MJSWGD =   0.33 
    CJSWGD = 5e-010 
    XTID =      3 
    LMLT =      1 
    WMLT =      1 
    LINT = 3.75e-009 
    LL =      0 
    LLC =      0 
    LLN =      1 
    LW =      0 
    LWC =      0 
    LWN =      1 
    LWL =      0 
    LWLC =      0 
    LMIN =      0 
    LMAX =      1 
    WINT = 5e-009 
    WL =      0 
    WLC =      0 
    WLN =      1 
    WW =      0 
    WWC =      0 
    WWN =      1 
    WWL =      0 
    WWLC =      0 
    WMIN =      0 
    WMAX =      1 
    NOIA = 6.188e+040 
    NOIB = 1.5e+025 
    NOIC = 8.75e+009 
    EM = 4.1e+007 
    EF =      1 
    AF =      1 
    KF =      0 
    TRS =      0 
    TRD =      0 
 

  **info** (d:\digital electronic\projects\ca_1\question_1_part_g_capacitance_20\q1_part_g_capacitance_20.sp:34) DC voltage reset to initial transient source value              in source        0:vin                 new dc=  0.0000D+00
 Warning:  Acde = 1 may be too small in BSIM4 model nmos with w=9e-008 l=4.5e-008.

 Warning: (B1 + Weff) may be too small in BSIM4 model nmos with w=9e-008 l=4.5e-008.

 Warning:  Acde = 1 may be too small in BSIM4 model pmos with w=1.8e-007 l=4.5e-008.

 
      
 **info** set option symb=1 internally to help for convergence.
 *****************************************************************
 ******  option summary
 ******
 runlvl  = 3         bypass  = 2         
 Warning:  Acde = 1 may be too small in BSIM4 model nmos with w=9e-008 l=4.5e-008.

 Warning: (B1 + Weff) may be too small in BSIM4 model nmos with w=9e-008 l=4.5e-008.

 Warning:  Acde = 1 may be too small in BSIM4 model pmos with w=1.8e-007 l=4.5e-008.

1****** HSPICE -- D-2010.03-SP1 32-BIT (May 26 2010) winnt ******               
 ******  
 first line of the netlist must be blank.

  ******  operating point information tnom=  25.000 temp=  27.000 *****
 ***** operating point status is all       simulation time is     0.     
    node    =voltage      node    =voltage      node    =voltage

 +0:in      =   0.      0:out     = 999.9601m 0:vdd     =   1.0000 


 ****  voltage sources

 subckt                        
 element  0:v1       0:vin     
  volts      1.0000     0.     
  current   -7.5777n  302.6121p
  power      7.5777n    0.     

     total voltage source power dissipation=    7.5777n       watts




 **** mosfets


 subckt                        
 element  0:m1       0:m2      
 model    0:pmos     0:nmos    
 region       Linear     Cutoff
  id        -7.5716n    7.2741n
  ibs     -3.429e-25  9.488e-25
  ibd       55.2575a   -1.0100p
  vgs       -1.0000     0.     
  vds      -39.8586u  999.9601m
  vbs        0.         0.     
  vth     -413.3471m  309.2431m
  vdsat   -439.2456m   37.5438m
  vod     -586.6529m -309.2431m
  beta     397.0420u    3.8069m
  gam eff  488.0000m  528.0000m
  gm         8.4558n  171.9736n
  gds      189.9553u   29.3232n
  gmb        3.5742n   56.5351n
  cdtot    259.1384a   56.3712a
  cgtot    246.7224a   62.8784a
  cstot    237.3373a  104.0121a
  cbtot    253.3401a  118.0935a
  cgs      141.2729a   32.0135a
  cgd      104.8915a   20.5717a



 ******  
 first line of the netlist must be blank.

  ******  transient analysis tnom=  25.000 temp=  27.000 *****
x

        time    voltage    
                    out    
    0.          999.9601m  
  100.00000p    597.3312m  
  200.00000p    241.5586m  
  300.00000p     44.8918m  
  400.00000p    -15.5583m  
  500.00000p     -1.2163m  
  600.00000p    -41.5135u  
  700.00000p     52.7714u  
  800.00000p     21.9385u  
  900.00000p     23.1113u  
    1.00000n     24.2841u  
    1.10000n     25.4569u  
    1.20000n     26.6297u  
    1.30000n     26.4678u  
    1.40000n     26.1929u  
    1.50000n     25.9180u  
    1.60000n     25.6431u  
    1.70000n     25.3682u  
    1.80000n     25.0933u  
    1.90000n     24.8183u  
    2.00000n     24.5434u  
    2.10000n     24.2685u  
    2.20000n     23.9936u  
    2.30000n     23.7187u  
    2.40000n     23.4438u  
    2.50000n     23.4550u  
    2.60000n     23.5468u  
    2.70000n     23.6386u  
    2.80000n     23.7304u  
    2.90000n     23.8221u  
    3.00000n     23.9139u  
    3.10000n     24.0057u  
    3.20000n     24.0975u  
    3.30000n     24.1893u  
    3.40000n     24.2811u  
    3.50000n     24.3729u  
    3.60000n     24.4647u  
    3.70000n     24.5565u  
    3.80000n     24.6483u  
    3.90000n     24.7401u  
    4.00000n     24.8319u  
    4.10000n     24.9237u  
    4.20000n     25.0155u  
    4.30000n     25.1073u  
    4.40000n     25.1991u  
    4.50000n     25.2909u  
    4.60000n     25.3827u  
    4.70000n     25.4744u  
    4.80000n     25.5662u  
    4.90000n     25.6580u  
    5.00000n     25.7498u  
    5.10000n     25.8416u  
    5.20000n     25.9334u  
    5.30000n     26.0252u  
    5.40000n     26.1170u  
    5.50000n     26.2088u  
    5.60000n     26.3006u  
    5.70000n     26.2759u  
    5.80000n     26.2480u  
    5.90000n     26.2202u  
    6.00000n     26.1924u  
    6.10000n     26.1645u  
    6.20000n     26.1367u  
    6.30000n     26.1089u  
    6.40000n     26.0810u  
    6.50000n     26.0532u  
    6.60000n     26.0254u  
    6.70000n     25.9975u  
    6.80000n     25.9697u  
    6.90000n     25.9419u  
    7.00000n     25.9140u  
    7.10000n     25.8862u  
    7.20000n     25.8584u  
    7.30000n     25.8305u  
    7.40000n     25.8027u  
    7.50000n     25.7749u  
    7.60000n     25.7470u  
    7.70000n     25.7192u  
    7.80000n     25.6914u  
    7.90000n     25.6636u  
    8.00000n     25.6357u  
    8.10000n     25.6079u  
    8.20000n     25.5801u  
    8.30000n     25.5522u  
    8.40000n     25.5244u  
    8.50000n     25.4966u  
    8.60000n     25.4687u  
    8.70000n     25.4409u  
    8.80000n     25.4131u  
    8.90000n     25.3852u  
    9.00000n     25.3574u  
    9.10000n     25.3296u  
    9.20000n     25.3017u  
    9.30000n     25.2739u  
    9.40000n     25.2461u  
    9.50000n     25.2182u  
    9.60000n     25.1904u  
    9.70000n     25.1626u  
    9.80000n     25.1347u  
    9.90000n     25.1069u  
   10.00000n     25.0791u  
   10.10000n     25.0512u  
   10.20000n     25.0234u  
   10.30000n     24.9956u  
   10.40000n     24.9677u  
   10.50000n     24.9399u  
   10.60000n     24.9121u  
   10.70000n     24.8843u  
   10.80000n     24.8564u  
   10.90000n     24.8286u  
   11.00000n     24.8008u  
   11.10000n     24.7729u  
   11.20000n     24.7451u  
   11.30000n     24.7173u  
   11.40000n     24.6894u  
   11.50000n     24.6616u  
   11.60000n     24.6338u  
   11.70000n     24.6059u  
   11.80000n     24.5781u  
   11.90000n     24.5503u  
   12.00000n     24.5224u  
   12.10000n     24.4946u  
   12.20000n     24.4668u  
   12.30000n     24.4389u  
   12.40000n     24.4111u  
   12.50000n     24.3833u  
   12.60000n     24.3554u  
   12.70000n     24.3276u  
   12.80000n     24.2998u  
   12.90000n     24.2719u  
   13.00000n     24.2441u  
   13.10000n     24.2163u  
   13.20000n     24.1884u  
   13.30000n     24.1606u  
   13.40000n     24.1328u  
   13.50000n     24.1049u  
   13.60000n     24.0771u  
   13.70000n     24.0493u  
   13.80000n     24.0215u  
   13.90000n     23.9936u  
   14.00000n     23.9658u  
   14.10000n     23.9380u  
   14.20000n     23.9101u  
   14.30000n     23.8823u  
   14.40000n     23.8545u  
   14.50000n     23.8266u  
   14.60000n     23.7988u  
   14.70000n     23.7710u  
   14.80000n     23.7431u  
   14.90000n     23.7153u  
   15.00000n     23.6875u  
   15.10000n     23.6596u  
   15.20000n     23.6318u  
   15.30000n     23.6040u  
   15.40000n     23.5761u  
   15.50000n     23.5483u  
   15.60000n     23.5205u  
   15.70000n     23.5791u  
   15.80000n     23.6401u  
   15.90000n     23.7010u  
   16.00000n     23.7620u  
   16.10000n     23.8229u  
   16.20000n     23.8839u  
   16.30000n     23.9448u  
   16.40000n     24.0058u  
   16.50000n     24.0667u  
   16.60000n     24.1277u  
   16.70000n     24.1886u  
   16.80000n     24.2496u  
   16.90000n     24.3105u  
   17.00000n     24.3715u  
   17.10000n     24.4324u  
   17.20000n     24.4934u  
   17.30000n     24.5543u  
   17.40000n     24.6153u  
   17.50000n     24.6762u  
   17.60000n     24.7372u  
   17.70000n     24.7981u  
   17.80000n     24.8591u  
   17.90000n     24.9200u  
   18.00000n     24.9810u  
   18.10000n     25.0419u  
   18.20000n     25.1029u  
   18.30000n     25.1638u  
   18.40000n     25.2248u  
   18.50000n     25.2857u  
   18.60000n     25.3467u  
   18.70000n     25.4076u  
   18.80000n     25.4686u  
   18.90000n     25.5295u  
   19.00000n     25.5905u  
   19.10000n     25.6514u  
   19.20000n     25.7124u  
   19.30000n     25.7733u  
   19.40000n     25.8343u  
   19.50000n     25.8953u  
   19.60000n     25.9562u  
   19.70000n     26.0172u  
   19.80000n     26.0781u  
   19.90000n     26.1391u  
   20.00000n     26.2000u  
   20.10000n    305.2131m  
   20.20000n    600.7318m  
   20.30000n    799.5465m  
   20.40000n    965.3729m  
   20.50000n      1.0010   
   20.60000n      1.0199   
   20.70000n      1.0091   
   20.80000n      1.0035   
   20.90000n    999.4413m  
   21.00000n    999.7547m  
   21.10000n    999.9040m  
   21.20000n    999.9286m  
   21.30000n    999.9532m  
   21.40000n    999.9771m  
   21.50000n    999.9723m  
   21.60000n    999.9676m  
   21.70000n    999.9628m  
   21.80000n    999.9581m  
   21.90000n    999.9537m  
   22.00000n    999.9545m  
   22.10000n    999.9552m  
   22.20000n    999.9559m  
   22.30000n    999.9566m  
   22.40000n    999.9573m  
   22.50000n    999.9580m  
   22.60000n    999.9588m  
   22.70000n    999.9595m  
   22.80000n    999.9602m  
   22.90000n    999.9609m  
   23.00000n    999.9616m  
   23.10000n    999.9624m  
   23.20000n    999.9631m  
   23.30000n    999.9638m  
   23.40000n    999.9645m  
   23.50000n    999.9650m  
   23.60000n    999.9648m  
   23.70000n    999.9646m  
   23.80000n    999.9643m  
   23.90000n    999.9641m  
   24.00000n    999.9639m  
   24.10000n    999.9636m  
   24.20000n    999.9634m  
   24.30000n    999.9632m  
   24.40000n    999.9629m  
   24.50000n    999.9627m  
   24.60000n    999.9625m  
   24.70000n    999.9622m  
   24.80000n    999.9620m  
   24.90000n    999.9618m  
   25.00000n    999.9616m  
   25.10000n    999.9613m  
   25.20000n    999.9611m  
   25.30000n    999.9609m  
   25.40000n    999.9606m  
   25.50000n    999.9604m  
   25.60000n    999.9602m  
   25.70000n    999.9599m  
   25.80000n    999.9597m  
   25.90000n    999.9595m  
   26.00000n    999.9592m  
   26.10000n    999.9590m  
   26.20000n    999.9588m  
   26.30000n    999.9586m  
   26.40000n    999.9583m  
   26.50000n    999.9581m  
   26.60000n    999.9579m  
   26.70000n    999.9576m  
   26.80000n    999.9574m  
   26.90000n    999.9572m  
   27.00000n    999.9569m  
   27.10000n    999.9567m  
   27.20000n    999.9565m  
   27.30000n    999.9562m  
   27.40000n    999.9560m  
   27.50000n    999.9558m  
   27.60000n    999.9558m  
   27.70000n    999.9559m  
   27.80000n    999.9560m  
   27.90000n    999.9561m  
   28.00000n    999.9562m  
   28.10000n    999.9563m  
   28.20000n    999.9563m  
   28.30000n    999.9564m  
   28.40000n    999.9565m  
   28.50000n    999.9566m  
   28.60000n    999.9567m  
   28.70000n    999.9568m  
   28.80000n    999.9569m  
   28.90000n    999.9570m  
   29.00000n    999.9570m  
   29.10000n    999.9571m  
   29.20000n    999.9572m  
   29.30000n    999.9573m  
   29.40000n    999.9574m  
   29.50000n    999.9575m  
   29.60000n    999.9576m  
   29.70000n    999.9577m  
   29.80000n    999.9577m  
   29.90000n    999.9578m  
   30.00000n    999.9579m  
   30.10000n    999.9580m  
   30.20000n    999.9581m  
   30.30000n    999.9582m  
   30.40000n    999.9583m  
   30.50000n    999.9584m  
   30.60000n    999.9584m  
   30.70000n    999.9585m  
   30.80000n    999.9586m  
   30.90000n    999.9587m  
   31.00000n    999.9588m  
   31.10000n    999.9589m  
   31.20000n    999.9590m  
   31.30000n    999.9591m  
   31.40000n    999.9591m  
   31.50000n    999.9592m  
   31.60000n    999.9593m  
   31.70000n    999.9594m  
   31.80000n    999.9595m  
   31.90000n    999.9596m  
   32.00000n    999.9597m  
   32.10000n    999.9598m  
   32.20000n    999.9598m  
   32.30000n    999.9599m  
   32.40000n    999.9600m  
   32.50000n    999.9601m  
   32.60000n    999.9602m  
   32.70000n    999.9603m  
   32.80000n    999.9604m  
   32.90000n    999.9605m  
   33.00000n    999.9605m  
   33.10000n    999.9606m  
   33.20000n    999.9607m  
   33.30000n    999.9608m  
   33.40000n    999.9609m  
   33.50000n    999.9610m  
   33.60000n    999.9611m  
   33.70000n    999.9612m  
   33.80000n    999.9612m  
   33.90000n    999.9613m  
   34.00000n    999.9614m  
   34.10000n    999.9615m  
   34.20000n    999.9616m  
   34.30000n    999.9617m  
   34.40000n    999.9618m  
   34.50000n    999.9619m  
   34.60000n    999.9619m  
   34.70000n    999.9620m  
   34.80000n    999.9621m  
   34.90000n    999.9622m  
   35.00000n    999.9623m  
   35.10000n    999.9624m  
   35.20000n    999.9625m  
   35.30000n    999.9626m  
   35.40000n    999.9626m  
   35.50000n    999.9627m  
   35.60000n    999.9628m  
   35.70000n    999.9629m  
   35.80000n    999.9630m  
   35.90000n    999.9631m  
   36.00000n    999.9632m  
   36.10000n    999.9633m  
   36.20000n    999.9633m  
   36.30000n    999.9634m  
   36.40000n    999.9635m  
   36.50000n    999.9636m  
   36.60000n    999.9637m  
   36.70000n    999.9638m  
   36.80000n    999.9639m  
   36.90000n    999.9640m  
   37.00000n    999.9640m  
   37.10000n    999.9641m  
   37.20000n    999.9642m  
   37.30000n    999.9643m  
   37.40000n    999.9643m  
   37.50000n    999.9642m  
   37.60000n    999.9641m  
   37.70000n    999.9640m  
   37.80000n    999.9639m  
   37.90000n    999.9638m  
   38.00000n    999.9638m  
   38.10000n    999.9637m  
   38.20000n    999.9636m  
   38.30000n    999.9635m  
   38.40000n    999.9634m  
   38.50000n    999.9633m  
   38.60000n    999.9633m  
   38.70000n    999.9632m  
   38.80000n    999.9631m  
   38.90000n    999.9630m  
   39.00000n    999.9629m  
   39.10000n    999.9629m  
   39.20000n    999.9628m  
   39.30000n    999.9627m  
   39.40000n    999.9626m  
   39.50000n    999.9625m  
   39.60000n    999.9624m  
   39.70000n    999.9624m  
   39.80000n    999.9623m  
   39.90000n    999.9622m  
   40.00000n    999.9621m  
   40.10000n    999.9620m  
   40.20000n    999.9620m  
   40.30000n    999.9619m  
   40.40000n    999.9618m  
   40.50000n    999.9617m  
   40.60000n    999.9616m  
   40.70000n    999.9615m  
   40.80000n    999.9615m  
   40.90000n    999.9614m  
   41.00000n    999.9613m  
   41.10000n    999.9612m  
   41.20000n    999.9611m  
   41.30000n    999.9611m  
   41.40000n    999.9610m  
   41.50000n    999.9609m  
   41.60000n    999.9608m  
   41.70000n    999.9607m  
   41.80000n    999.9606m  
   41.90000n    999.9606m  
   42.00000n    999.9605m  
   42.10000n    999.9604m  
   42.20000n    999.9603m  
   42.30000n    999.9602m  
   42.40000n    999.9601m  
   42.50000n    999.9601m  
   42.60000n    999.9600m  
   42.70000n    999.9599m  
   42.80000n    999.9598m  
   42.90000n    999.9597m  
   43.00000n    999.9597m  
   43.10000n    999.9596m  
   43.20000n    999.9595m  
   43.30000n    999.9594m  
   43.40000n    999.9593m  
   43.50000n    999.9592m  
   43.60000n    999.9592m  
   43.70000n    999.9591m  
   43.80000n    999.9590m  
   43.90000n    999.9589m  
   44.00000n    999.9588m  
   44.10000n    999.9588m  
   44.20000n    999.9587m  
   44.30000n    999.9586m  
   44.40000n    999.9585m  
   44.50000n    999.9584m  
   44.60000n    999.9583m  
   44.70000n    999.9583m  
   44.80000n    999.9582m  
   44.90000n    999.9581m  
   45.00000n    999.9580m  
   45.10000n    999.9579m  
   45.20000n    999.9578m  
   45.30000n    999.9578m  
   45.40000n    999.9577m  
   45.50000n    999.9576m  
   45.60000n    999.9575m  
   45.70000n    999.9574m  
   45.80000n    999.9574m  
   45.90000n    999.9573m  
   46.00000n    999.9572m  
   46.10000n    999.9571m  
   46.20000n    999.9570m  
   46.30000n    999.9569m  
   46.40000n    999.9569m  
   46.50000n    999.9568m  
   46.60000n    999.9567m  
   46.70000n    999.9566m  
   46.80000n    999.9565m  
   46.90000n    999.9565m  
   47.00000n    999.9564m  
   47.10000n    999.9563m  
   47.20000n    999.9562m  
   47.30000n    999.9561m  
   47.40000n    999.9562m  
   47.50000n    999.9563m  
   47.60000n    999.9563m  
   47.70000n    999.9564m  
   47.80000n    999.9565m  
   47.90000n    999.9566m  
   48.00000n    999.9567m  
   48.10000n    999.9567m  
   48.20000n    999.9568m  
   48.30000n    999.9569m  
   48.40000n    999.9570m  
   48.50000n    999.9570m  
   48.60000n    999.9571m  
   48.70000n    999.9572m  
   48.80000n    999.9573m  
   48.90000n    999.9574m  
   49.00000n    999.9574m  
   49.10000n    999.9575m  
   49.20000n    999.9576m  
   49.30000n    999.9577m  
   49.40000n    999.9578m  
   49.50000n    999.9578m  
   49.60000n    999.9579m  
   49.70000n    999.9580m  
   49.80000n    999.9581m  
   49.90000n    999.9581m  
   50.00000n    999.9582m  
   50.10000n    999.9583m  
   50.20000n    999.9584m  
   50.30000n    999.9585m  
   50.40000n    999.9585m  
   50.50000n    999.9586m  
   50.60000n    999.9587m  
   50.70000n    999.9588m  
   50.80000n    999.9589m  
   50.90000n    999.9589m  
   51.00000n    999.9590m  
   51.10000n    999.9591m  
   51.20000n    999.9592m  
   51.30000n    999.9592m  
   51.40000n    999.9593m  
   51.50000n    999.9594m  
   51.60000n    999.9595m  
   51.70000n    999.9596m  
   51.80000n    999.9596m  
   51.90000n    999.9597m  
   52.00000n    999.9598m  
   52.10000n    999.9599m  
   52.20000n    999.9600m  
   52.30000n    999.9600m  
   52.40000n    999.9601m  
   52.50000n    999.9602m  
   52.60000n    999.9603m  
   52.70000n    999.9603m  
   52.80000n    999.9604m  
   52.90000n    999.9605m  
   53.00000n    999.9606m  
   53.10000n    999.9607m  
   53.20000n    999.9607m  
   53.30000n    999.9608m  
   53.40000n    999.9609m  
   53.50000n    999.9610m  
   53.60000n    999.9611m  
   53.70000n    999.9611m  
   53.80000n    999.9612m  
   53.90000n    999.9613m  
   54.00000n    999.9614m  
   54.10000n    999.9614m  
   54.20000n    999.9615m  
   54.30000n    999.9616m  
   54.40000n    999.9617m  
   54.50000n    999.9618m  
   54.60000n    999.9618m  
   54.70000n    999.9619m  
   54.80000n    999.9620m  
   54.90000n    999.9621m  
   55.00000n    999.9622m  
   55.10000n    999.9622m  
   55.20000n    999.9623m  
   55.30000n    999.9624m  
   55.40000n    999.9625m  
   55.50000n    999.9625m  
   55.60000n    999.9626m  
   55.70000n    999.9627m  
   55.80000n    999.9628m  
   55.90000n    999.9629m  
   56.00000n    999.9629m  
   56.10000n    999.9630m  
   56.20000n    999.9631m  
   56.30000n    999.9632m  
   56.40000n    999.9633m  
   56.50000n    999.9633m  
   56.60000n    999.9634m  
   56.70000n    999.9635m  
   56.80000n    999.9636m  
   56.90000n    999.9636m  
   57.00000n    999.9637m  
   57.10000n    999.9638m  
   57.20000n    999.9639m  
   57.30000n    999.9640m  
   57.40000n    999.9639m  
   57.50000n    999.9638m  
   57.60000n    999.9638m  
   57.70000n    999.9637m  
   57.80000n    999.9636m  
   57.90000n    999.9635m  
   58.00000n    999.9635m  
   58.10000n    999.9634m  
   58.20000n    999.9633m  
   58.30000n    999.9632m  
   58.40000n    999.9632m  
   58.50000n    999.9631m  
   58.60000n    999.9630m  
   58.70000n    999.9629m  
   58.80000n    999.9629m  
   58.90000n    999.9628m  
   59.00000n    999.9627m  
   59.10000n    999.9626m  
   59.20000n    999.9626m  
   59.30000n    999.9625m  
   59.40000n    999.9624m  
   59.50000n    999.9623m  
   59.60000n    999.9623m  
   59.70000n    999.9622m  
   59.80000n    999.9621m  
   59.90000n    999.9620m  
   60.00000n    999.9620m  
   60.10000n    999.9619m  
   60.20000n    999.9618m  
   60.30000n    999.9617m  
   60.40000n    999.9617m  
   60.50000n    999.9616m  
   60.60000n    999.9615m  
   60.70000n    999.9614m  
   60.80000n    999.9614m  
   60.90000n    999.9613m  
   61.00000n    999.9612m  
   61.10000n    999.9611m  
   61.20000n    999.9610m  
   61.30000n    999.9610m  
   61.40000n    999.9609m  
   61.50000n    999.9608m  
   61.60000n    999.9607m  
   61.70000n    999.9607m  
   61.80000n    999.9606m  
   61.90000n    999.9605m  
   62.00000n    999.9604m  
   62.10000n    999.9604m  
   62.20000n    999.9603m  
   62.30000n    999.9602m  
   62.40000n    999.9601m  
   62.50000n    999.9601m  
   62.60000n    999.9600m  
   62.70000n    999.9599m  
   62.80000n    999.9598m  
   62.90000n    999.9598m  
   63.00000n    999.9597m  
   63.10000n    999.9596m  
   63.20000n    999.9595m  
   63.30000n    999.9595m  
   63.40000n    999.9594m  
   63.50000n    999.9593m  
   63.60000n    999.9592m  
   63.70000n    999.9592m  
   63.80000n    999.9591m  
   63.90000n    999.9590m  
   64.00000n    999.9589m  
   64.10000n    999.9589m  
   64.20000n    999.9588m  
   64.30000n    999.9587m  
   64.40000n    999.9586m  
   64.50000n    999.9586m  
   64.60000n    999.9585m  
   64.70000n    999.9584m  
   64.80000n    999.9583m  
   64.90000n    999.9583m  
   65.00000n    999.9582m  
   65.10000n    999.9581m  
   65.20000n    999.9580m  
   65.30000n    999.9580m  
   65.40000n    999.9579m  
   65.50000n    999.9578m  
   65.60000n    999.9577m  
   65.70000n    999.9577m  
   65.80000n    999.9576m  
   65.90000n    999.9575m  
   66.00000n    999.9574m  
   66.10000n    999.9574m  
   66.20000n    999.9573m  
   66.30000n    999.9572m  
   66.40000n    999.9571m  
   66.50000n    999.9571m  
   66.60000n    999.9570m  
   66.70000n    999.9569m  
   66.80000n    999.9568m  
   66.90000n    999.9568m  
   67.00000n    999.9567m  
   67.10000n    999.9566m  
   67.20000n    999.9565m  
   67.30000n    999.9565m  
   67.40000n    999.9565m  
   67.50000n    999.9566m  
   67.60000n    999.9566m  
   67.70000n    999.9567m  
   67.80000n    999.9568m  
   67.90000n    999.9569m  
   68.00000n    999.9569m  
   68.10000n    999.9570m  
   68.20000n    999.9571m  
   68.30000n    999.9572m  
   68.40000n    999.9572m  
   68.50000n    999.9573m  
   68.60000n    999.9574m  
   68.70000n    999.9574m  
   68.80000n    999.9575m  
   68.90000n    999.9576m  
   69.00000n    999.9577m  
   69.10000n    999.9577m  
   69.20000n    999.9578m  
   69.30000n    999.9579m  
   69.40000n    999.9579m  
   69.50000n    999.9580m  
   69.60000n    999.9581m  
   69.70000n    999.9582m  
   69.80000n    999.9582m  
   69.90000n    999.9583m  
   70.00000n    999.9584m  
   70.10000n    999.9585m  
   70.20000n    999.9585m  
   70.30000n    999.9586m  
   70.40000n    999.9587m  
   70.50000n    999.9587m  
   70.60000n    999.9588m  
   70.70000n    999.9589m  
   70.80000n    999.9590m  
   70.90000n    999.9590m  
   71.00000n    999.9591m  
   71.10000n    999.9592m  
   71.20000n    999.9592m  
   71.30000n    999.9593m  
   71.40000n    999.9594m  
   71.50000n    999.9595m  
   71.60000n    999.9595m  
   71.70000n    999.9596m  
   71.80000n    999.9597m  
   71.90000n    999.9598m  
   72.00000n    999.9598m  
   72.10000n    999.9599m  
   72.20000n    999.9600m  
   72.30000n    999.9600m  
   72.40000n    999.9601m  
   72.50000n    999.9602m  
   72.60000n    999.9603m  
   72.70000n    999.9603m  
   72.80000n    999.9604m  
   72.90000n    999.9605m  
   73.00000n    999.9605m  
   73.10000n    999.9606m  
   73.20000n    999.9607m  
   73.30000n    999.9608m  
   73.40000n    999.9608m  
   73.50000n    999.9609m  
   73.60000n    999.9610m  
   73.70000n    999.9610m  
   73.80000n    999.9611m  
   73.90000n    999.9612m  
   74.00000n    999.9613m  
   74.10000n    999.9613m  
   74.20000n    999.9614m  
   74.30000n    999.9615m  
   74.40000n    999.9616m  
   74.50000n    999.9616m  
   74.60000n    999.9617m  
   74.70000n    999.9618m  
   74.80000n    999.9618m  
   74.90000n    999.9619m  
   75.00000n    999.9620m  
   75.10000n    999.9621m  
   75.20000n    999.9621m  
   75.30000n    999.9622m  
   75.40000n    999.9623m  
   75.50000n    999.9623m  
   75.60000n    999.9624m  
   75.70000n    999.9625m  
   75.80000n    999.9626m  
   75.90000n    999.9626m  
   76.00000n    999.9627m  
   76.10000n    999.9628m  
   76.20000n    999.9629m  
   76.30000n    999.9629m  
   76.40000n    999.9630m  
   76.50000n    999.9631m  
   76.60000n    999.9631m  
   76.70000n    999.9632m  
   76.80000n    999.9633m  
   76.90000n    999.9634m  
   77.00000n    999.9634m  
   77.10000n    999.9635m  
   77.20000n    999.9636m  
   77.30000n    999.9636m  
   77.40000n    999.9636m  
   77.50000n    999.9635m  
   77.60000n    999.9635m  
   77.70000n    999.9634m  
   77.80000n    999.9633m  
   77.90000n    999.9633m  
   78.00000n    999.9632m  
   78.10000n    999.9631m  
   78.20000n    999.9630m  
   78.30000n    999.9630m  
   78.40000n    999.9629m  
   78.50000n    999.9628m  
   78.60000n    999.9628m  
   78.70000n    999.9627m  
   78.80000n    999.9626m  
   78.90000n    999.9626m  
   79.00000n    999.9625m  
   79.10000n    999.9624m  
   79.20000n    999.9624m  
   79.30000n    999.9623m  
   79.40000n    999.9622m  
   79.50000n    999.9621m  
   79.60000n    999.9621m  
   79.70000n    999.9620m  
   79.80000n    999.9619m  
   79.90000n    999.9619m  
   80.00000n    999.9618m  
   80.10000n    999.9617m  
   80.20000n    999.9617m  
   80.30000n    999.9616m  
   80.40000n    999.9615m  
   80.50000n    999.9615m  
   80.60000n    999.9614m  
   80.70000n    999.9613m  
   80.80000n    999.9612m  
   80.90000n    999.9612m  
   81.00000n    999.9611m  
   81.10000n    999.9610m  
   81.20000n    999.9610m  
   81.30000n    999.9609m  
   81.40000n    999.9608m  
   81.50000n    999.9608m  
   81.60000n    999.9607m  
   81.70000n    999.9606m  
   81.80000n    999.9606m  
   81.90000n    999.9605m  
   82.00000n    999.9604m  
   82.10000n    999.9604m  
   82.20000n    999.9603m  
   82.30000n    999.9602m  
   82.40000n    999.9601m  
   82.50000n    999.9601m  
   82.60000n    999.9600m  
   82.70000n    999.9599m  
   82.80000n    999.9599m  
   82.90000n    999.9598m  
   83.00000n    999.9597m  
   83.10000n    999.9597m  
   83.20000n    999.9596m  
   83.30000n    999.9595m  
   83.40000n    999.9595m  
   83.50000n    999.9594m  
   83.60000n    999.9593m  
   83.70000n    999.9592m  
   83.80000n    999.9592m  
   83.90000n    999.9591m  
   84.00000n    999.9590m  
   84.10000n    999.9590m  
   84.20000n    999.9589m  
   84.30000n    999.9588m  
   84.40000n    999.9588m  
   84.50000n    999.9587m  
   84.60000n    999.9586m  
   84.70000n    999.9586m  
   84.80000n    999.9585m  
   84.90000n    999.9584m  
   85.00000n    999.9583m  
   85.10000n    999.9583m  
   85.20000n    999.9582m  
   85.30000n    999.9581m  
   85.40000n    999.9581m  
   85.50000n    999.9580m  
   85.60000n    999.9579m  
   85.70000n    999.9579m  
   85.80000n    999.9578m  
   85.90000n    999.9577m  
   86.00000n    999.9577m  
   86.10000n    999.9576m  
   86.20000n    999.9575m  
   86.30000n    999.9574m  
   86.40000n    999.9574m  
   86.50000n    999.9573m  
   86.60000n    999.9572m  
   86.70000n    999.9572m  
   86.80000n    999.9571m  
   86.90000n    999.9570m  
   87.00000n    999.9570m  
   87.10000n    999.9569m  
   87.20000n    999.9568m  
   87.30000n    999.9568m  
   87.40000n    999.9568m  
   87.50000n    999.9569m  
   87.60000n    999.9569m  
   87.70000n    999.9570m  
   87.80000n    999.9571m  
   87.90000n    999.9571m  
   88.00000n    999.9572m  
   88.10000n    999.9573m  
   88.20000n    999.9573m  
   88.30000n    999.9574m  
   88.40000n    999.9575m  
   88.50000n    999.9575m  
   88.60000n    999.9576m  
   88.70000n    999.9577m  
   88.80000n    999.9577m  
   88.90000n    999.9578m  
   89.00000n    999.9579m  
   89.10000n    999.9579m  
   89.20000n    999.9580m  
   89.30000n    999.9581m  
   89.40000n    999.9581m  
   89.50000n    999.9582m  
   89.60000n    999.9583m  
   89.70000n    999.9583m  
   89.80000n    999.9584m  
   89.90000n    999.9585m  
   90.00000n    999.9585m  
   90.10000n    999.9586m  
   90.20000n    999.9587m  
   90.30000n    999.9587m  
   90.40000n    999.9588m  
   90.50000n    999.9589m  
   90.60000n    999.9589m  
   90.70000n    999.9590m  
   90.80000n    999.9591m  
   90.90000n    999.9591m  
   91.00000n    999.9592m  
   91.10000n    999.9593m  
   91.20000n    999.9593m  
   91.30000n    999.9594m  
   91.40000n    999.9595m  
   91.50000n    999.9595m  
   91.60000n    999.9596m  
   91.70000n    999.9596m  
   91.80000n    999.9597m  
   91.90000n    999.9598m  
   92.00000n    999.9598m  
   92.10000n    999.9599m  
   92.20000n    999.9600m  
   92.30000n    999.9600m  
   92.40000n    999.9601m  
   92.50000n    999.9602m  
   92.60000n    999.9602m  
   92.70000n    999.9603m  
   92.80000n    999.9604m  
   92.90000n    999.9604m  
   93.00000n    999.9605m  
   93.10000n    999.9606m  
   93.20000n    999.9606m  
   93.30000n    999.9607m  
   93.40000n    999.9608m  
   93.50000n    999.9608m  
   93.60000n    999.9609m  
   93.70000n    999.9610m  
   93.80000n    999.9610m  
   93.90000n    999.9611m  
   94.00000n    999.9612m  
   94.10000n    999.9612m  
   94.20000n    999.9613m  
   94.30000n    999.9614m  
   94.40000n    999.9614m  
   94.50000n    999.9615m  
   94.60000n    999.9616m  
   94.70000n    999.9616m  
   94.80000n    999.9617m  
   94.90000n    999.9618m  
   95.00000n    999.9618m  
   95.10000n    999.9619m  
   95.20000n    999.9620m  
   95.30000n    999.9620m  
   95.40000n    999.9621m  
   95.50000n    999.9622m  
   95.60000n    999.9622m  
   95.70000n    999.9623m  
   95.80000n    999.9624m  
   95.90000n    999.9624m  
   96.00000n    999.9625m  
   96.10000n    999.9626m  
   96.20000n    999.9626m  
   96.30000n    999.9627m  
   96.40000n    999.9628m  
   96.50000n    999.9628m  
   96.60000n    999.9629m  
   96.70000n    999.9630m  
   96.80000n    999.9630m  
   96.90000n    999.9631m  
   97.00000n    999.9632m  
   97.10000n    999.9632m  
   97.20000n    999.9633m  
   97.30000n    999.9634m  
   97.40000n    999.9632m  
   97.50000n    999.9630m  
   97.60000n    999.9627m  
   97.70000n    999.9625m  
   97.80000n    999.9623m  
   97.90000n    999.9621m  
   98.00000n    999.9618m  
   98.10000n    999.9616m  
   98.20000n    999.9614m  
   98.30000n    999.9612m  
   98.40000n    999.9609m  
   98.50000n    999.9607m  
   98.60000n    999.9605m  
   98.70000n    999.9603m  
   98.80000n    999.9600m  
   98.90000n    999.9598m  
   99.00000n    999.9596m  
   99.10000n    999.9594m  
   99.20000n    999.9592m  
   99.30000n    999.9589m  
   99.40000n    999.9587m  
   99.50000n    999.9585m  
   99.60000n    999.9583m  
   99.70000n    999.9580m  
   99.80000n    999.9578m  
   99.90000n    999.9576m  
  100.00000n    999.9574m  
  100.10000n    594.9659m  
  100.20000n    240.8959m  
  100.30000n     44.4156m  
  100.40000n    -15.4802m  
  100.50000n     -1.4580m  
  100.60000n    -52.0198u  
  100.70000n     56.4251u  
  100.80000n     21.6555u  
  100.90000n     22.9303u  
  101.00000n     24.2051u  
  101.10000n     25.4800u  
  101.20000n     26.7548u  
  101.30000n     26.5964u  
  101.40000n     26.2856u  
  101.50000n     25.9747u  
  101.60000n     25.6638u  
  101.70000n     25.3530u  
  101.80000n     25.0421u  
  101.90000n     24.7312u  
  102.00000n     24.4204u  
  102.10000n     24.1095u  
  102.20000n     23.7986u  
  102.30000n     23.4878u  
  102.40000n     23.2924u  
  102.50000n     23.3946u  
  102.60000n     23.4968u  
  102.70000n     23.5990u  
  102.80000n     23.7012u  
  102.90000n     23.8034u  
  103.00000n     23.9057u  
  103.10000n     24.0079u  
  103.20000n     24.1101u  
  103.30000n     24.2123u  
  103.40000n     24.3145u  
  103.50000n     24.4168u  
  103.60000n     24.5190u  
  103.70000n     24.6212u  
  103.80000n     24.7234u  
  103.90000n     24.8256u  
  104.00000n     24.9279u  
  104.10000n     25.0301u  
  104.20000n     25.1323u  
  104.30000n     25.2345u  
  104.40000n     25.3367u  
  104.50000n     25.4389u  
  104.60000n     25.5412u  
  104.70000n     25.6434u  
  104.80000n     25.7456u  
  104.90000n     25.8478u  
  105.00000n     25.9500u  
  105.10000n     26.0523u  
  105.20000n     26.1545u  
  105.30000n     26.2567u  
  105.40000n     26.3589u  
  105.50000n     26.3881u  
  105.60000n     26.3577u  
  105.70000n     26.3273u  
  105.80000n     26.2969u  
  105.90000n     26.2665u  
  106.00000n     26.2361u  
  106.10000n     26.2057u  
  106.20000n     26.1753u  
  106.30000n     26.1449u  
  106.40000n     26.1145u  
  106.50000n     26.0840u  
  106.60000n     26.0536u  
  106.70000n     26.0232u  
  106.80000n     25.9928u  
  106.90000n     25.9624u  
  107.00000n     25.9320u  
  107.10000n     25.9016u  
  107.20000n     25.8712u  
  107.30000n     25.8408u  
  107.40000n     25.8104u  
  107.50000n     25.7800u  
  107.60000n     25.7496u  
  107.70000n     25.7192u  
  107.80000n     25.6887u  
  107.90000n     25.6583u  
  108.00000n     25.6279u  
  108.10000n     25.5975u  
  108.20000n     25.5671u  
  108.30000n     25.5367u  
  108.40000n     25.5063u  
  108.50000n     25.4759u  
  108.60000n     25.4455u  
  108.70000n     25.4151u  
  108.80000n     25.3847u  
  108.90000n     25.3543u  
  109.00000n     25.3239u  
  109.10000n     25.2935u  
  109.20000n     25.2630u  
  109.30000n     25.2326u  
  109.40000n     25.2022u  
  109.50000n     25.1718u  
  109.60000n     25.1414u  
  109.70000n     25.1110u  
  109.80000n     25.0806u  
  109.90000n     25.0502u  
  110.00000n     25.0198u  
  110.10000n     24.9894u  
  110.20000n     24.9590u  
  110.30000n     24.9286u  
  110.40000n     24.8982u  
  110.50000n     24.8678u  
  110.60000n     24.8373u  
  110.70000n     24.8069u  
  110.80000n     24.7765u  
  110.90000n     24.7461u  
  111.00000n     24.7157u  
  111.10000n     24.6853u  
  111.20000n     24.6549u  
  111.30000n     24.6245u  
  111.40000n     24.5941u  
  111.50000n     24.5637u  
  111.60000n     24.5333u  
  111.70000n     24.5029u  
  111.80000n     24.4725u  
  111.90000n     24.4421u  
  112.00000n     24.4116u  
  112.10000n     24.3812u  
  112.20000n     24.3508u  
  112.30000n     24.3204u  
  112.40000n     24.2900u  
  112.50000n     24.2596u  
  112.60000n     24.2292u  
  112.70000n     24.1988u  
  112.80000n     24.1684u  
  112.90000n     24.1380u  
  113.00000n     24.1076u  
  113.10000n     24.0772u  
  113.20000n     24.0468u  
  113.30000n     24.0163u  
  113.40000n     23.9859u  
  113.50000n     23.9555u  
  113.60000n     23.9251u  
  113.70000n     23.8947u  
  113.80000n     23.8643u  
  113.90000n     23.8339u  
  114.00000n     23.8035u  
  114.10000n     23.7731u  
  114.20000n     23.7427u  
  114.30000n     23.7123u  
  114.40000n     23.6819u  
  114.50000n     23.6515u  
  114.60000n     23.6211u  
  114.70000n     23.5906u  
  114.80000n     23.5602u  
  114.90000n     23.5298u  
  115.00000n     23.4994u  
  115.10000n     23.4690u  
  115.20000n     23.4386u  
  115.30000n     23.4281u  
  115.40000n     23.4892u  
  115.50000n     23.5503u  
  115.60000n     23.6114u  
  115.70000n     23.6724u  
  115.80000n     23.7335u  
  115.90000n     23.7946u  
  116.00000n     23.8557u  
  116.10000n     23.9168u  
  116.20000n     23.9778u  
  116.30000n     24.0389u  
  116.40000n     24.1000u  
  116.50000n     24.1611u  
  116.60000n     24.2221u  
  116.70000n     24.2832u  
  116.80000n     24.3443u  
  116.90000n     24.4054u  
  117.00000n     24.4665u  
  117.10000n     24.5275u  
  117.20000n     24.5886u  
  117.30000n     24.6497u  
  117.40000n     24.7108u  
  117.50000n     24.7718u  
  117.60000n     24.8329u  
  117.70000n     24.8940u  
  117.80000n     24.9551u  
  117.90000n     25.0161u  
  118.00000n     25.0772u  
  118.10000n     25.1383u  
  118.20000n     25.1994u  
  118.30000n     25.2605u  
  118.40000n     25.3215u  
  118.50000n     25.3826u  
  118.60000n     25.4437u  
  118.70000n     25.5048u  
  118.80000n     25.5658u  
  118.90000n     25.6269u  
  119.00000n     25.6880u  
  119.10000n     25.7491u  
  119.20000n     25.8101u  
  119.30000n     25.8712u  
  119.40000n     25.9323u  
  119.50000n     25.9934u  
  119.60000n     26.0545u  
  119.70000n     26.1155u  
  119.80000n     26.1766u  
  119.90000n     26.2377u  
  120.00000n     26.2988u  
  120.10000n    305.6232m  
  120.20000n    598.6488m  
  120.30000n    800.2887m  
  120.40000n    957.8111m  
  120.50000n    997.4056m  
  120.60000n      1.0128   
  120.70000n      1.0061   
  120.80000n      1.0020   
  120.90000n    999.6012m  
  121.00000n    999.8358m  
  121.10000n    999.9195m  
  121.20000n    999.9368m  
  121.30000n    999.9541m  
  121.40000n    999.9714m  
  121.50000n    999.9726m  
  121.60000n    999.9686m  
  121.70000n    999.9646m  
  121.80000n    999.9606m  
  121.90000n    999.9567m  
  122.00000n    999.9535m  
  122.10000n    999.9541m  
  122.20000n    999.9548m  
  122.30000n    999.9554m  
  122.40000n    999.9561m  
  122.50000n    999.9567m  
  122.60000n    999.9574m  
  122.70000n    999.9580m  
  122.80000n    999.9587m  
  122.90000n    999.9593m  
  123.00000n    999.9600m  
  123.10000n    999.9606m  
  123.20000n    999.9613m  
  123.30000n    999.9620m  
  123.40000n    999.9626m  
  123.50000n    999.9633m  
  123.60000n    999.9639m  
  123.70000n    999.9646m  
  123.80000n    999.9650m  
  123.90000n    999.9648m  
  124.00000n    999.9646m  
  124.10000n    999.9644m  
  124.20000n    999.9642m  
  124.30000n    999.9640m  
  124.40000n    999.9638m  
  124.50000n    999.9636m  
  124.60000n    999.9634m  
  124.70000n    999.9632m  
  124.80000n    999.9630m  
  124.90000n    999.9628m  
  125.00000n    999.9626m  
  125.10000n    999.9624m  
  125.20000n    999.9622m  
  125.30000n    999.9620m  
  125.40000n    999.9618m  
  125.50000n    999.9616m  
  125.60000n    999.9614m  
  125.70000n    999.9612m  
  125.80000n    999.9610m  
  125.90000n    999.9608m  
  126.00000n    999.9606m  
  126.10000n    999.9604m  
  126.20000n    999.9602m  
  126.30000n    999.9600m  
  126.40000n    999.9598m  
  126.50000n    999.9596m  
  126.60000n    999.9594m  
  126.70000n    999.9592m  
  126.80000n    999.9590m  
  126.90000n    999.9588m  
  127.00000n    999.9585m  
  127.10000n    999.9583m  
  127.20000n    999.9581m  
  127.30000n    999.9579m  
  127.40000n    999.9577m  
  127.50000n    999.9575m  
  127.60000n    999.9573m  
  127.70000n    999.9571m  
  127.80000n    999.9569m  
  127.90000n    999.9567m  
  128.00000n    999.9565m  
  128.10000n    999.9563m  
  128.20000n    999.9561m  
  128.30000n    999.9559m  
  128.40000n    999.9557m  
  128.50000n    999.9557m  
  128.60000n    999.9558m  
  128.70000n    999.9559m  
  128.80000n    999.9559m  
  128.90000n    999.9560m  
  129.00000n    999.9561m  
  129.10000n    999.9562m  
  129.20000n    999.9563m  
  129.30000n    999.9564m  
  129.40000n    999.9565m  
  129.50000n    999.9566m  
  129.60000n    999.9566m  
  129.70000n    999.9567m  
  129.80000n    999.9568m  
  129.90000n    999.9569m  
  130.00000n    999.9570m  
  130.10000n    999.9571m  
  130.20000n    999.9572m  
  130.30000n    999.9573m  
  130.40000n    999.9573m  
  130.50000n    999.9574m  
  130.60000n    999.9575m  
  130.70000n    999.9576m  
  130.80000n    999.9577m  
  130.90000n    999.9578m  
  131.00000n    999.9579m  
  131.10000n    999.9580m  
  131.20000n    999.9580m  
  131.30000n    999.9581m  
  131.40000n    999.9582m  
  131.50000n    999.9583m  
  131.60000n    999.9584m  
  131.70000n    999.9585m  
  131.80000n    999.9586m  
  131.90000n    999.9587m  
  132.00000n    999.9587m  
  132.10000n    999.9588m  
  132.20000n    999.9589m  
  132.30000n    999.9590m  
  132.40000n    999.9591m  
  132.50000n    999.9592m  
  132.60000n    999.9593m  
  132.70000n    999.9594m  
  132.80000n    999.9594m  
  132.90000n    999.9595m  
  133.00000n    999.9596m  
  133.10000n    999.9597m  
  133.20000n    999.9598m  
  133.30000n    999.9599m  
  133.40000n    999.9600m  
  133.50000n    999.9601m  
  133.60000n    999.9601m  
  133.70000n    999.9602m  
  133.80000n    999.9603m  
  133.90000n    999.9604m  
  134.00000n    999.9605m  
  134.10000n    999.9606m  
  134.20000n    999.9607m  
  134.30000n    999.9608m  
  134.40000n    999.9608m  
  134.50000n    999.9609m  
  134.60000n    999.9610m  
  134.70000n    999.9611m  
  134.80000n    999.9612m  
  134.90000n    999.9613m  
  135.00000n    999.9614m  
  135.10000n    999.9615m  
  135.20000n    999.9615m  
  135.30000n    999.9616m  
  135.40000n    999.9617m  
  135.50000n    999.9618m  
  135.60000n    999.9619m  
  135.70000n    999.9620m  
  135.80000n    999.9621m  
  135.90000n    999.9622m  
  136.00000n    999.9622m  
  136.10000n    999.9623m  
  136.20000n    999.9624m  
  136.30000n    999.9625m  
  136.40000n    999.9626m  
  136.50000n    999.9627m  
  136.60000n    999.9628m  
  136.70000n    999.9629m  
  136.80000n    999.9629m  
  136.90000n    999.9630m  
  137.00000n    999.9631m  
  137.10000n    999.9632m  
  137.20000n    999.9633m  
  137.30000n    999.9634m  
  137.40000n    999.9635m  
  137.50000n    999.9636m  
  137.60000n    999.9636m  
  137.70000n    999.9637m  
  137.80000n    999.9638m  
  137.90000n    999.9639m  
  138.00000n    999.9640m  
  138.10000n    999.9641m  
  138.20000n    999.9642m  
  138.30000n    999.9643m  
  138.40000n    999.9643m  
  138.50000n    999.9643m  
  138.60000n    999.9642m  
  138.70000n    999.9642m  
  138.80000n    999.9641m  
  138.90000n    999.9640m  
  139.00000n    999.9639m  
  139.10000n    999.9638m  
  139.20000n    999.9637m  
  139.30000n    999.9637m  
  139.40000n    999.9636m  
  139.50000n    999.9635m  
  139.60000n    999.9634m  
  139.70000n    999.9633m  
  139.80000n    999.9632m  
  139.90000n    999.9632m  
  140.00000n    999.9631m  
  140.10000n    999.9630m  
  140.20000n    999.9629m  
  140.30000n    999.9628m  
  140.40000n    999.9627m  
  140.50000n    999.9627m  
  140.60000n    999.9626m  
  140.70000n    999.9625m  
  140.80000n    999.9624m  
  140.90000n    999.9623m  
  141.00000n    999.9622m  
  141.10000n    999.9622m  
  141.20000n    999.9621m  
  141.30000n    999.9620m  
  141.40000n    999.9619m  
  141.50000n    999.9618m  
  141.60000n    999.9617m  
  141.70000n    999.9617m  
  141.80000n    999.9616m  
  141.90000n    999.9615m  
  142.00000n    999.9614m  
  142.10000n    999.9613m  
  142.20000n    999.9612m  
  142.30000n    999.9612m  
  142.40000n    999.9611m  
  142.50000n    999.9610m  
  142.60000n    999.9609m  
  142.70000n    999.9608m  
  142.80000n    999.9607m  
  142.90000n    999.9607m  
  143.00000n    999.9606m  
  143.10000n    999.9605m  
  143.20000n    999.9604m  
  143.30000n    999.9603m  
  143.40000n    999.9602m  
  143.50000n    999.9601m  
  143.60000n    999.9601m  
  143.70000n    999.9600m  
  143.80000n    999.9599m  
  143.90000n    999.9598m  
  144.00000n    999.9597m  
  144.10000n    999.9596m  
  144.20000n    999.9596m  
  144.30000n    999.9595m  
  144.40000n    999.9594m  
  144.50000n    999.9593m  
  144.60000n    999.9592m  
  144.70000n    999.9591m  
  144.80000n    999.9591m  
  144.90000n    999.9590m  
  145.00000n    999.9589m  
  145.10000n    999.9588m  
  145.20000n    999.9587m  
  145.30000n    999.9586m  
  145.40000n    999.9586m  
  145.50000n    999.9585m  
  145.60000n    999.9584m  
  145.70000n    999.9583m  
  145.80000n    999.9582m  
  145.90000n    999.9581m  
  146.00000n    999.9581m  
  146.10000n    999.9580m  
  146.20000n    999.9579m  
  146.30000n    999.9578m  
  146.40000n    999.9577m  
  146.50000n    999.9576m  
  146.60000n    999.9576m  
  146.70000n    999.9575m  
  146.80000n    999.9574m  
  146.90000n    999.9573m  
  147.00000n    999.9572m  
  147.10000n    999.9571m  
  147.20000n    999.9571m  
  147.30000n    999.9570m  
  147.40000n    999.9569m  
  147.50000n    999.9568m  
  147.60000n    999.9567m  
  147.70000n    999.9566m  
  147.80000n    999.9566m  
  147.90000n    999.9565m  
  148.00000n    999.9564m  
  148.10000n    999.9563m  
  148.20000n    999.9562m  
  148.30000n    999.9561m  
  148.40000n    999.9560m  
  148.50000n    999.9561m  
  148.60000n    999.9561m  
  148.70000n    999.9562m  
  148.80000n    999.9563m  
  148.90000n    999.9564m  
  149.00000n    999.9565m  
  149.10000n    999.9565m  
  149.20000n    999.9566m  
  149.30000n    999.9567m  
  149.40000n    999.9568m  
  149.50000n    999.9569m  
  149.60000n    999.9569m  
  149.70000n    999.9570m  
  149.80000n    999.9571m  
  149.90000n    999.9572m  
  150.00000n    999.9573m  
  150.10000n    999.9573m  
  150.20000n    999.9574m  
  150.30000n    999.9575m  
  150.40000n    999.9576m  
  150.50000n    999.9577m  
  150.60000n    999.9577m  
  150.70000n    999.9578m  
  150.80000n    999.9579m  
  150.90000n    999.9580m  
  151.00000n    999.9581m  
  151.10000n    999.9581m  
  151.20000n    999.9582m  
  151.30000n    999.9583m  
  151.40000n    999.9584m  
  151.50000n    999.9585m  
  151.60000n    999.9585m  
  151.70000n    999.9586m  
  151.80000n    999.9587m  
  151.90000n    999.9588m  
  152.00000n    999.9589m  
  152.10000n    999.9589m  
  152.20000n    999.9590m  
  152.30000n    999.9591m  
  152.40000n    999.9592m  
  152.50000n    999.9593m  
  152.60000n    999.9593m  
  152.70000n    999.9594m  
  152.80000n    999.9595m  
  152.90000n    999.9596m  
  153.00000n    999.9597m  
  153.10000n    999.9597m  
  153.20000n    999.9598m  
  153.30000n    999.9599m  
  153.40000n    999.9600m  
  153.50000n    999.9601m  
  153.60000n    999.9601m  
  153.70000n    999.9602m  
  153.80000n    999.9603m  
  153.90000n    999.9604m  
  154.00000n    999.9605m  
  154.10000n    999.9605m  
  154.20000n    999.9606m  
  154.30000n    999.9607m  
  154.40000n    999.9608m  
  154.50000n    999.9609m  
  154.60000n    999.9609m  
  154.70000n    999.9610m  
  154.80000n    999.9611m  
  154.90000n    999.9612m  
  155.00000n    999.9613m  
  155.10000n    999.9613m  
  155.20000n    999.9614m  
  155.30000n    999.9615m  
  155.40000n    999.9616m  
  155.50000n    999.9617m  
  155.60000n    999.9617m  
  155.70000n    999.9618m  
  155.80000n    999.9619m  
  155.90000n    999.9620m  
  156.00000n    999.9621m  
  156.10000n    999.9621m  
  156.20000n    999.9622m  
  156.30000n    999.9623m  
  156.40000n    999.9624m  
  156.50000n    999.9625m  
  156.60000n    999.9625m  
  156.70000n    999.9626m  
  156.80000n    999.9627m  
  156.90000n    999.9628m  
  157.00000n    999.9629m  
  157.10000n    999.9629m  
  157.20000n    999.9630m  
  157.30000n    999.9631m  
  157.40000n    999.9632m  
  157.50000n    999.9633m  
  157.60000n    999.9633m  
  157.70000n    999.9634m  
  157.80000n    999.9635m  
  157.90000n    999.9636m  
  158.00000n    999.9637m  
  158.10000n    999.9637m  
  158.20000n    999.9638m  
  158.30000n    999.9639m  
  158.40000n    999.9640m  
  158.50000n    999.9640m  
  158.60000n    999.9639m  
  158.70000n    999.9638m  
  158.80000n    999.9638m  
  158.90000n    999.9637m  
  159.00000n    999.9636m  
  159.10000n    999.9635m  
  159.20000n    999.9634m  
  159.30000n    999.9634m  
  159.40000n    999.9633m  
  159.50000n    999.9632m  
  159.60000n    999.9631m  
  159.70000n    999.9631m  
  159.80000n    999.9630m  
  159.90000n    999.9629m  
  160.00000n    999.9628m  
  160.10000n    999.9628m  
  160.20000n    999.9627m  
  160.30000n    999.9626m  
  160.40000n    999.9625m  
  160.50000n    999.9624m  
  160.60000n    999.9624m  
  160.70000n    999.9623m  
  160.80000n    999.9622m  
  160.90000n    999.9621m  
  161.00000n    999.9621m  
  161.10000n    999.9620m  
  161.20000n    999.9619m  
  161.30000n    999.9618m  
  161.40000n    999.9618m  
  161.50000n    999.9617m  
  161.60000n    999.9616m  
  161.70000n    999.9615m  
  161.80000n    999.9614m  
  161.90000n    999.9614m  
  162.00000n    999.9613m  
  162.10000n    999.9612m  
  162.20000n    999.9611m  
  162.30000n    999.9611m  
  162.40000n    999.9610m  
  162.50000n    999.9609m  
  162.60000n    999.9608m  
  162.70000n    999.9608m  
  162.80000n    999.9607m  
  162.90000n    999.9606m  
  163.00000n    999.9605m  
  163.10000n    999.9605m  
  163.20000n    999.9604m  
  163.30000n    999.9603m  
  163.40000n    999.9602m  
  163.50000n    999.9601m  
  163.60000n    999.9601m  
  163.70000n    999.9600m  
  163.80000n    999.9599m  
  163.90000n    999.9598m  
  164.00000n    999.9598m  
  164.10000n    999.9597m  
  164.20000n    999.9596m  
  164.30000n    999.9595m  
  164.40000n    999.9595m  
  164.50000n    999.9594m  
  164.60000n    999.9593m  
  164.70000n    999.9592m  
  164.80000n    999.9591m  
  164.90000n    999.9591m  
  165.00000n    999.9590m  
  165.10000n    999.9589m  
  165.20000n    999.9588m  
  165.30000n    999.9588m  
  165.40000n    999.9587m  
  165.50000n    999.9586m  
  165.60000n    999.9585m  
  165.70000n    999.9585m  
  165.80000n    999.9584m  
  165.90000n    999.9583m  
  166.00000n    999.9582m  
  166.10000n    999.9581m  
  166.20000n    999.9581m  
  166.30000n    999.9580m  
  166.40000n    999.9579m  
  166.50000n    999.9578m  
  166.60000n    999.9578m  
  166.70000n    999.9577m  
  166.80000n    999.9576m  
  166.90000n    999.9575m  
  167.00000n    999.9575m  
  167.10000n    999.9574m  
  167.20000n    999.9573m  
  167.30000n    999.9572m  
  167.40000n    999.9572m  
  167.50000n    999.9571m  
  167.60000n    999.9570m  
  167.70000n    999.9569m  
  167.80000n    999.9568m  
  167.90000n    999.9568m  
  168.00000n    999.9567m  
  168.10000n    999.9566m  
  168.20000n    999.9565m  
  168.30000n    999.9565m  
  168.40000n    999.9564m  
  168.50000n    999.9564m  
  168.60000n    999.9565m  
  168.70000n    999.9565m  
  168.80000n    999.9566m  
  168.90000n    999.9567m  
  169.00000n    999.9568m  
  169.10000n    999.9568m  
  169.20000n    999.9569m  
  169.30000n    999.9570m  
  169.40000n    999.9570m  
  169.50000n    999.9571m  
  169.60000n    999.9572m  
  169.70000n    999.9573m  
  169.80000n    999.9573m  
  169.90000n    999.9574m  
  170.00000n    999.9575m  
  170.10000n    999.9576m  
  170.20000n    999.9576m  
  170.30000n    999.9577m  
  170.40000n    999.9578m  
  170.50000n    999.9579m  
  170.60000n    999.9579m  
  170.70000n    999.9580m  
  170.80000n    999.9581m  
  170.90000n    999.9582m  
  171.00000n    999.9582m  
  171.10000n    999.9583m  
  171.20000n    999.9584m  
  171.30000n    999.9584m  
  171.40000n    999.9585m  
  171.50000n    999.9586m  
  171.60000n    999.9587m  
  171.70000n    999.9587m  
  171.80000n    999.9588m  
  171.90000n    999.9589m  
  172.00000n    999.9590m  
  172.10000n    999.9590m  
  172.20000n    999.9591m  
  172.30000n    999.9592m  
  172.40000n    999.9593m  
  172.50000n    999.9593m  
  172.60000n    999.9594m  
  172.70000n    999.9595m  
  172.80000n    999.9595m  
  172.90000n    999.9596m  
  173.00000n    999.9597m  
  173.10000n    999.9598m  
  173.20000n    999.9598m  
  173.30000n    999.9599m  
  173.40000n    999.9600m  
  173.50000n    999.9601m  
  173.60000n    999.9601m  
  173.70000n    999.9602m  
  173.80000n    999.9603m  
  173.90000n    999.9604m  
  174.00000n    999.9604m  
  174.10000n    999.9605m  
  174.20000n    999.9606m  
  174.30000n    999.9607m  
  174.40000n    999.9607m  
  174.50000n    999.9608m  
  174.60000n    999.9609m  
  174.70000n    999.9609m  
  174.80000n    999.9610m  
  174.90000n    999.9611m  
  175.00000n    999.9612m  
  175.10000n    999.9612m  
  175.20000n    999.9613m  
  175.30000n    999.9614m  
  175.40000n    999.9615m  
  175.50000n    999.9615m  
  175.60000n    999.9616m  
  175.70000n    999.9617m  
  175.80000n    999.9618m  
  175.90000n    999.9618m  
  176.00000n    999.9619m  
  176.10000n    999.9620m  
  176.20000n    999.9620m  
  176.30000n    999.9621m  
  176.40000n    999.9622m  
  176.50000n    999.9623m  
  176.60000n    999.9623m  
  176.70000n    999.9624m  
  176.80000n    999.9625m  
  176.90000n    999.9626m  
  177.00000n    999.9626m  
  177.10000n    999.9627m  
  177.20000n    999.9628m  
  177.30000n    999.9629m  
  177.40000n    999.9629m  
  177.50000n    999.9630m  
  177.60000n    999.9631m  
  177.70000n    999.9632m  
  177.80000n    999.9632m  
  177.90000n    999.9633m  
  178.00000n    999.9634m  
  178.10000n    999.9634m  
  178.20000n    999.9635m  
  178.30000n    999.9636m  
  178.40000n    999.9637m  
  178.50000n    999.9637m  
  178.60000n    999.9636m  
  178.70000n    999.9635m  
  178.80000n    999.9635m  
  178.90000n    999.9634m  
  179.00000n    999.9633m  
  179.10000n    999.9632m  
  179.20000n    999.9632m  
  179.30000n    999.9631m  
  179.40000n    999.9630m  
  179.50000n    999.9630m  
  179.60000n    999.9629m  
  179.70000n    999.9628m  
  179.80000n    999.9627m  
  179.90000n    999.9627m  
  180.00000n    999.9626m  
  180.10000n    999.9625m  
  180.20000n    999.9625m  
  180.30000n    999.9624m  
  180.40000n    999.9623m  
  180.50000n    999.9623m  
  180.60000n    999.9622m  
  180.70000n    999.9621m  
  180.80000n    999.9620m  
  180.90000n    999.9620m  
  181.00000n    999.9619m  
  181.10000n    999.9618m  
  181.20000n    999.9618m  
  181.30000n    999.9617m  
  181.40000n    999.9616m  
  181.50000n    999.9615m  
  181.60000n    999.9615m  
  181.70000n    999.9614m  
  181.80000n    999.9613m  
  181.90000n    999.9613m  
  182.00000n    999.9612m  
  182.10000n    999.9611m  
  182.20000n    999.9611m  
  182.30000n    999.9610m  
  182.40000n    999.9609m  
  182.50000n    999.9608m  
  182.60000n    999.9608m  
  182.70000n    999.9607m  
  182.80000n    999.9606m  
  182.90000n    999.9606m  
  183.00000n    999.9605m  
  183.10000n    999.9604m  
  183.20000n    999.9604m  
  183.30000n    999.9603m  
  183.40000n    999.9602m  
  183.50000n    999.9601m  
  183.60000n    999.9601m  
  183.70000n    999.9600m  
  183.80000n    999.9599m  
  183.90000n    999.9599m  
  184.00000n    999.9598m  
  184.10000n    999.9597m  
  184.20000n    999.9596m  
  184.30000n    999.9596m  
  184.40000n    999.9595m  
  184.50000n    999.9594m  
  184.60000n    999.9594m  
  184.70000n    999.9593m  
  184.80000n    999.9592m  
  184.90000n    999.9592m  
  185.00000n    999.9591m  
  185.10000n    999.9590m  
  185.20000n    999.9589m  
  185.30000n    999.9589m  
  185.40000n    999.9588m  
  185.50000n    999.9587m  
  185.60000n    999.9587m  
  185.70000n    999.9586m  
  185.80000n    999.9585m  
  185.90000n    999.9585m  
  186.00000n    999.9584m  
  186.10000n    999.9583m  
  186.20000n    999.9582m  
  186.30000n    999.9582m  
  186.40000n    999.9581m  
  186.50000n    999.9580m  
  186.60000n    999.9580m  
  186.70000n    999.9579m  
  186.80000n    999.9578m  
  186.90000n    999.9577m  
  187.00000n    999.9577m  
  187.10000n    999.9576m  
  187.20000n    999.9575m  
  187.30000n    999.9575m  
  187.40000n    999.9574m  
  187.50000n    999.9573m  
  187.60000n    999.9573m  
  187.70000n    999.9572m  
  187.80000n    999.9571m  
  187.90000n    999.9570m  
  188.00000n    999.9570m  
  188.10000n    999.9569m  
  188.20000n    999.9568m  
  188.30000n    999.9568m  
  188.40000n    999.9567m  
  188.50000n    999.9567m  
  188.60000n    999.9568m  
  188.70000n    999.9568m  
  188.80000n    999.9569m  
  188.90000n    999.9570m  
  189.00000n    999.9570m  
  189.10000n    999.9571m  
  189.20000n    999.9572m  
  189.30000n    999.9572m  
  189.40000n    999.9573m  
  189.50000n    999.9574m  
  189.60000n    999.9574m  
  189.70000n    999.9575m  
  189.80000n    999.9576m  
  189.90000n    999.9576m  
  190.00000n    999.9577m  
  190.10000n    999.9578m  
  190.20000n    999.9578m  
  190.30000n    999.9579m  
  190.40000n    999.9580m  
  190.50000n    999.9580m  
  190.60000n    999.9581m  
  190.70000n    999.9582m  
  190.80000n    999.9582m  
  190.90000n    999.9583m  
  191.00000n    999.9584m  
  191.10000n    999.9584m  
  191.20000n    999.9585m  
  191.30000n    999.9586m  
  191.40000n    999.9587m  
  191.50000n    999.9587m  
  191.60000n    999.9588m  
  191.70000n    999.9589m  
  191.80000n    999.9589m  
  191.90000n    999.9590m  
  192.00000n    999.9591m  
  192.10000n    999.9591m  
  192.20000n    999.9592m  
  192.30000n    999.9593m  
  192.40000n    999.9593m  
  192.50000n    999.9594m  
  192.60000n    999.9595m  
  192.70000n    999.9595m  
  192.80000n    999.9596m  
  192.90000n    999.9597m  
  193.00000n    999.9597m  
  193.10000n    999.9598m  
  193.20000n    999.9599m  
  193.30000n    999.9599m  
  193.40000n    999.9600m  
  193.50000n    999.9601m  
  193.60000n    999.9601m  
  193.70000n    999.9602m  
  193.80000n    999.9603m  
  193.90000n    999.9603m  
  194.00000n    999.9604m  
  194.10000n    999.9605m  
  194.20000n    999.9605m  
  194.30000n    999.9606m  
  194.40000n    999.9607m  
  194.50000n    999.9607m  
  194.60000n    999.9608m  
  194.70000n    999.9609m  
  194.80000n    999.9609m  
  194.90000n    999.9610m  
  195.00000n    999.9611m  
  195.10000n    999.9611m  
  195.20000n    999.9612m  
  195.30000n    999.9613m  
  195.40000n    999.9613m  
  195.50000n    999.9614m  
  195.60000n    999.9615m  
  195.70000n    999.9616m  
  195.80000n    999.9616m  
  195.90000n    999.9617m  
  196.00000n    999.9618m  
  196.10000n    999.9618m  
  196.20000n    999.9619m  
  196.30000n    999.9620m  
  196.40000n    999.9620m  
  196.50000n    999.9621m  
  196.60000n    999.9622m  
  196.70000n    999.9622m  
  196.80000n    999.9623m  
  196.90000n    999.9624m  
  197.00000n    999.9624m  
  197.10000n    999.9625m  
  197.20000n    999.9626m  
  197.30000n    999.9626m  
  197.40000n    999.9627m  
  197.50000n    999.9628m  
  197.60000n    999.9628m  
  197.70000n    999.9629m  
  197.80000n    999.9630m  
  197.90000n    999.9630m  
  198.00000n    999.9631m  
  198.10000n    999.9632m  
  198.20000n    999.9632m  
  198.30000n    999.9633m  
  198.40000n    999.9634m  
  198.50000n    999.9632m  
  198.60000n    999.9628m  
  198.70000n    999.9625m  
  198.80000n    999.9621m  
  198.90000n    999.9617m  
  199.00000n    999.9613m  
  199.10000n    999.9610m  
  199.20000n    999.9606m  
  199.30000n    999.9602m  
  199.40000n    999.9598m  
  199.50000n    999.9595m  
  199.60000n    999.9591m  
  199.70000n    999.9587m  
  199.80000n    999.9583m  
  199.90000n    999.9580m  
  200.00000n    999.9576m  
y
   t_rise=  3.1636E-10  targ=  2.0358E-08   trig=  2.0042E-08
   t_fall=  2.3355E-10  targ=  2.6174E-10   trig=  2.8184E-11

          ***** job concluded
1****** HSPICE -- D-2010.03-SP1 32-BIT (May 26 2010) winnt ******               
 ******  
 first line of the netlist must be blank.

  ******  job statistics summary tnom=  25.000 temp=  27.000 *****

  ******  HSPICE Threads Information  ******

  Command Line Threads Count                  :     1
  Available CPU Count                         :     4
  Actual Model Evaluation(Load) Threads Count :     1
  Actual Solver Threads Count                 :     1


  ******  Circuit Statistics  ******
  # nodes       =      12 # elements   =       5
  # resistors   =       0 # capacitors =       1 # inductors   =       0
  # mutual_inds =       0 # vccs       =       0 # vcvs        =       0
  # cccs        =       0 # ccvs       =       0 # volt_srcs   =       2
  # curr_srcs   =       0 # diodes     =       0 # bjts        =       0
  # jfets       =       0 # mosfets    =       2 # U elements  =       0
  # T elements  =       0 # W elements =       0 # B elements  =       0
  # S elements  =       0 # P elements =       0 # va device   =       0


  ******  Runtime Statistics (seconds)  ******

  analysis           time    # points   tot. iter  conv.iter
  op point           0.01           1           4
  transient          0.04        2001         233          97 rev=        10
  readin             0.05
  errchk             0.01
  setup              0.01
  output             0.01


           total memory used          166  kbytes
           total cpu time            0.15 seconds
           total elapsed time        0.22 seconds
           job started at     20:39:54 11/04/2014
           job ended   at     20:39:54 11/04/2014


  lic: Release hspice token(s) 
