 ****** HSPICE -- D-2010.03-SP1 32-BIT (May 26 2010) winnt ******               
  Copyright (C) 2010 Synopsys, Inc. All Rights Reserved.                        
  Unpublished-rights reserved under US copyright laws.
  This program is protected by law and is subject to the 
  terms and conditions of the license agreement from Synopsys.
  Use of this program is your acceptance to be bound by the 
  license agreement. HSPICE is the trademark of Synopsys, Inc.
  Input File: d:\digital electronic\projects\ca_3\pseudo_nmos_mux\pseudo_nmos_mu
  lic:  
  lic: FLEXlm: v8.5b 
  lic: USER:   HP                   HOSTNAME: ProBook 
  lic: HOSTID: "00090faa0001 56db30007c95 16db30007c95 a4db30007c95 a45d36cb5ab9
  
  lic: Using FLEXlm license file: 
  lic: 27000@elena 
  lic: Checkout 1 hspice 
  lic: License/Maintenance for hspice will expire on 31-dec-2020/2007.9 
  lic: NODE LOCKED license on hostid "00090faa0001 56db30007c95 16db30007c95 a4d
 b
  lic:   
 Init: read install configuration file: C:\synopsys\Hspice_D-2010.03-SP1\meta.cfg
1****** HSPICE -- D-2010.03-SP1 32-BIT (May 26 2010) winnt ******               
 ******  
 first line of the netlist must be blank.

  ******  circuit name directory
 circuit number to circuit name directory
   number circuitname                     definition         multiplier
        0 main circuit
        1 x_a.                            inverter           1.00 
        2 x_b.                            inverter           1.00 
        3 x_s.                            inverter           1.00 
1****** HSPICE -- D-2010.03-SP1 32-BIT (May 26 2010) winnt ******               
 ******  
 first line of the netlist must be blank.

  ******  mos   model parameters tnom=  25.000 temp=  25.000 *****
 
Model Name: nmos  

 BSIM4 Model (Level 54)

    MOBMOD = 0
    BINUNIT = 1
    PARAMCHK = 1
    CAPMOD = 2
    DIOMOD = 1
    RDSMOD = 0
    TRNQSMOD = 0
    ACNQSMOD = 0
    RBODYMOD = 1
    RGATEMOD = 1
    PERMOD = 1
    GEOMOD = 1
    RGEOMOD = 0
    FNOIMOD = 1
    TNOIMOD = 0
    IGCMOD = 1
    IGBMOD = 1
    STIMOD = 0
    VERSION =      4 
    TOXREF = 1.65e-009 
    TOXE = 1.65e-009 
    TOXP = 1e-009 
    TOXM = 1.65e-009 
    DTOX = 6.5e-010 
    EPSROX =    3.9 
    CDSC =      0 
    CDSCB =      0 
    CDSCD =      0 
    CIT =      0 
    NFACTOR =    2.3 
    XJ = 1e-008 
    VSAT = 1.785e+005 
    A0 =      1 
    AGS =      0 
    A1 =      0 
    A2 =      1 
    AT = 3.3e+004 
    KETA =   0.04 
    NSUB = 6e+016 
    NDEP = 4.12e+018 
    NSD = 2e+020 
    NGATE = 2e+020 
    GAMMA1 =      0 
    GAMMA2 =      0 
    VBX =      0 
    VBM =     -3 
    XT = 1.55e-007 
    K1 =    0.4 
    KT1 =  -0.11 
    KT1L =      0 
    KT2 =  0.022 
    K2 =      0 
    K3 =      0 
    K3B =      0 
    LPE0 =      0 
    LPEB =      0 
    DVTP0 = 1e-011 
    DVTP1 =    0.1 
    W0 = 2.5e-006 
    DVT0 =      1 
    DVT1 =      2 
    DVT2 =      0 
    DVT0W =      0 
    DVT1W =      0 
    DVT2W =      0 
    DROUT =    0.5 
    DSUB =    0.1 
    VTH0 = 0.5088 
    EU =   1.67 
    UA = 6e-010 
    UA1 = 4.31e-009 
    UB = 1.2e-018 
    UB1 = 7.61e-018 
    UC =      0 
    UC1 = -5.6e-011 
    U0 = 0.0389 
    UTE =   -1.5 
    VOFF =  -0.13 
    VOFFL =      0 
    MINV =   0.05 
    FPROUT =    0.2 
    PDITS =   0.01 
    PDITSD =   0.23 
    PDITSL = 2.3e+006 
    DELTA =   0.01 
    RDSW =    150 
    RDSWMIN =      0 
    RDWMIN =      0 
    RSWMIN =      0 
    RDW =     75 
    RSW =     75 
    PRWG =      0 
    PRWB =      0 
    PRT =      0 
    ETA0 = 0.0042 
    ETAB =      0 
    PCLM =   0.02 
    PDIBLC1 =  0.001 
    PDIBLC2 =  0.001 
    PDIBLCB = -0.005 
    PSCBE1 = 8.14e+008 
    PSCBE2 = 1e-007 
    PVAG = 1e-020 
    WR =      1 
    DWG =      0 
    DWB =      0 
    XW =      0 
    XWREF =      0 
    XL = -1.4e-008 
    XLREF = -1.4e-008 
    B0 =      0 
    B1 =      0 
    ALPHA0 =  0.074 
    ALPHA1 =  0.005 
    AGIDL = 0.0002 
    BGIDL = 2.1e+009 
    CGIDL = 0.0002 
    PHIN =      0 
    EGIDL =    0.8 
    AIGC =  0.012 
    BIGC = 0.0028 
    CIGC =  0.002 
    AIGSD =  0.012 
    BIGSD = 0.0028 
    CIGSD =  0.002 
    AIGBACC =  0.012 
    BIGBACC = 0.0028 
    CIGBACC =  0.002 
    AIGBINV =  0.014 
    BIGBINV =  0.004 
    CIGBINV =  0.004 
    NIGC =      1 
    NIGBINV =      3 
    NIGBACC =      1 
    NTOX =      1 
    EIGBINV =    1.1 
    PIGCD =      1 
    POXEDGE =      1 
    XRCRG1 =     12 
    TNOIA =    1.5 
    TNOIB =    3.5 
    NTNOI =      1 
    XRCRG2 =      5 
    BETA0 =     30 
    IJTHDFWD =   0.01 
    IJTHSFWD =   0.01 
    IJTHDREV =  0.001 
    IJTHSREV =  0.001 
    XJBVD =      1 
    XJBVS =      1 
    BVD =     10 
    BVS =     10 
    VFB =  -0.55 
    GBMIN = 1e-010 
    RBDB =     15 
    RBPB =      5 
    RBSB =     15 
    RBPS =     15 
    RBPD =     15 
    CGSL = 2.653e-010 
    CGDL = 2.653e-010 
    CKAPPAS =   0.03 
    CKAPPAD =   0.03 
    CF = 1.208e-010 
    CLC = 1e-007 
    CLE =    0.6 
    DWC = 5e-009 
    DLC = 2.7e-009 
    DLCIG = 2.7e-009 
    DWJ =      0 
    VFBCV =     -1 
    ACDE =      1 
    MOIN =     15 
    NOFF =    0.9 
    VOFFCV =   0.02 
    DMCG =      0 
    DMCI =      0 
    DMDG =      0 
    DMCGT =      0 
    XGW =      0 
    XGL =      0 
    RSHG =    0.4 
    NGCON =      1 
    TCJ =  0.001 
    TPB =  0.005 
    TCJSW =  0.001 
    TPBSW =  0.005 
    TCJSWG =  0.001 
    TPBSWG =  0.005 
    SK0 =      0 
    SK1 =      0 
    SK2 =      0 
    SL = 2e-006 
    SW = 2e-006 
    K =      0 
    TNOM =  300.1 
    CGSO = 8.5e-011 
    CGDO = 8.5e-011 
    CGBO = 2.56e-011 
    XPART =      0 
    RSH =      5 
    JSS = 0.0001 
    JSWS = 1e-011 
    JSWGS = 1e-010 
    PBS =      1 
    MJS =    0.5 
    PBSWS =      1 
    MJSWS =   0.33 
    CJS = 0.0005 
    CJSWS = 5e-010 
    NJS =      1 
    PBSWGS =      1 
    MJSWGS =   0.33 
    CJSWGS = 3e-010 
    XTIS =      3 
    JSD = 0.0001 
    JSWD = 1e-011 
    JSWGD = 1e-010 
    PBD =      1 
    MJD =    0.5 
    PBSWD =      1 
    MJSWD =   0.33 
    CJD = 0.0005 
    CJSWD = 5e-010 
    NJD =      1 
    PBSWGD =      1 
    MJSWGD =   0.33 
    CJSWGD = 5e-010 
    XTID =      3 
    LMLT =      1 
    WMLT =      1 
    LINT = 2.7e-009 
    LL =      0 
    LLC =      0 
    LLN =      1 
    LW =      0 
    LWC =      0 
    LWN =      1 
    LWL =      0 
    LWLC =      0 
    LMIN =      0 
    LMAX =      1 
    WINT = 5e-009 
    WL =      0 
    WLC =      0 
    WLN =      1 
    WW =      0 
    WWC =      0 
    WWN =      1 
    WWL =      0 
    WWLC =      0 
    WMIN =      0 
    WMAX =      1 
    NOIA = 6.25e+041 
    NOIB = 3.125e+026 
    NOIC = 8.75e+009 
    EM = 4.1e+007 
    EF =      1 
    AF =      1 
    KF =      0 
    TRS =      0 
    TRD =      0 
 

 
Model Name: pmos  

 BSIM4 Model (Level 54)

    MOBMOD = 0
    BINUNIT = 1
    PARAMCHK = 1
    CAPMOD = 2
    DIOMOD = 1
    RDSMOD = 0
    TRNQSMOD = 0
    ACNQSMOD = 0
    RBODYMOD = 1
    RGATEMOD = 1
    PERMOD = 1
    GEOMOD = 1
    RGEOMOD = 0
    FNOIMOD = 1
    TNOIMOD = 0
    IGCMOD = 1
    IGBMOD = 1
    STIMOD = 0
    VERSION =      4 
    TOXREF = 1.75e-009 
    TOXE = 1.75e-009 
    TOXP = 1e-009 
    TOXM = 1.75e-009 
    DTOX = 7.5e-010 
    EPSROX =    3.9 
    CDSC =      0 
    CDSCB =      0 
    CDSCD =      0 
    CIT =      0 
    NFACTOR =    2.3 
    XJ = 1e-008 
    VSAT = 7e+004 
    A0 =      1 
    AGS = 1e-020 
    A1 =      0 
    A2 =      1 
    AT = 3.3e+004 
    KETA = -0.047 
    NSUB = 6e+016 
    NDEP = 3.07e+018 
    NSD = 2e+020 
    NGATE = 2e+020 
    GAMMA1 =      0 
    GAMMA2 =      0 
    VBX =      0 
    VBM =     -3 
    XT = 1.55e-007 
    K1 =    0.4 
    KT1 =  -0.11 
    KT1L =      0 
    KT2 =  0.022 
    K2 =  -0.01 
    K3 =      0 
    K3B =      0 
    LPE0 =      0 
    LPEB =      0 
    DVTP0 = 1e-011 
    DVTP1 =   0.05 
    W0 = 2.5e-006 
    DVT0 =      1 
    DVT1 =      2 
    DVT2 = -0.032 
    DVT0W =      0 
    DVT1W =      0 
    DVT2W =      0 
    DROUT =    0.6 
    DSUB =    0.1 
    VTH0 =  -0.45 
    EU =      1 
    UA = 2e-009 
    UA1 = 4.31e-009 
    UB = 5e-019 
    UB1 = 7.61e-018 
    UC =      0 
    UC1 = -5.6e-011 
    U0 = 0.00355 
    UTE =   -1.5 
    VOFF = -0.126 
    VOFFL =      0 
    MINV =   0.05 
    FPROUT =    0.2 
    PDITS =   0.08 
    PDITSD =   0.23 
    PDITSL = 2.3e+006 
    DELTA =   0.01 
    RDSW =    150 
    RDSWMIN =      0 
    RDWMIN =      0 
    RSWMIN =      0 
    RDW =     75 
    RSW =     75 
    PRWG =      0 
    PRWB =      0 
    PRT =      0 
    ETA0 = 0.0042 
    ETAB =      0 
    PCLM =    0.1 
    PDIBLC1 =  0.001 
    PDIBLC2 =  0.001 
    PDIBLCB = 3.4e-008 
    PSCBE1 = 8.14e+008 
    PSCBE2 = 9.58e-007 
    PVAG = 1e-020 
    WR =      1 
    DWG =      0 
    DWB =      0 
    XW =      0 
    XWREF =      0 
    XL = -1.4e-008 
    XLREF = -1.4e-008 
    B0 =      0 
    B1 =      0 
    ALPHA0 =  0.074 
    ALPHA1 =  0.005 
    AGIDL = 0.0002 
    BGIDL = 2.1e+009 
    CGIDL = 0.0002 
    PHIN =      0 
    EGIDL =    0.8 
    AIGC =   0.69 
    BIGC = 0.0012 
    CIGC = 0.0008 
    AIGSD = 0.0087 
    BIGSD = 0.0012 
    CIGSD = 0.0008 
    AIGBACC =  0.012 
    BIGBACC = 0.0028 
    CIGBACC =  0.002 
    AIGBINV =  0.014 
    BIGBINV =  0.004 
    CIGBINV =  0.004 
    NIGC =      1 
    NIGBINV =      3 
    NIGBACC =      1 
    NTOX =      1 
    EIGBINV =    1.1 
    PIGCD =      1 
    POXEDGE =      1 
    XRCRG1 =     12 
    TNOIA =    1.5 
    TNOIB =    3.5 
    NTNOI =      1 
    XRCRG2 =      5 
    BETA0 =     30 
    IJTHDFWD =   0.01 
    IJTHSFWD =   0.01 
    IJTHDREV =  0.001 
    IJTHSREV =  0.001 
    XJBVD =      1 
    XJBVS =      1 
    BVD =     10 
    BVS =     10 
    VFB =   0.55 
    GBMIN = 1e-010 
    RBDB =     15 
    RBPB =      5 
    RBSB =     15 
    RBPS =     15 
    RBPD =     15 
    CGSL = 2.653e-010 
    CGDL = 2.653e-010 
    CKAPPAS =   0.03 
    CKAPPAD =   0.03 
    CF = 1.195e-010 
    CLC = 1e-007 
    CLE =    0.6 
    DWC = 5e-009 
    DLC = 2.7e-009 
    DLCIG = 2.7e-009 
    DWJ =      0 
    VFBCV =     -1 
    ACDE =      1 
    MOIN =     15 
    NOFF =    0.9 
    VOFFCV =   0.02 
    DMCG =      0 
    DMCI =      0 
    DMDG =      0 
    DMCGT =      0 
    XGW =      0 
    XGL =      0 
    RSHG =    0.4 
    NGCON =      1 
    TCJ =  0.001 
    TPB =  0.005 
    TCJSW =  0.001 
    TPBSW =  0.005 
    TCJSWG =  0.001 
    TPBSWG =  0.005 
    SK0 =      0 
    SK1 =      0 
    SK2 =      0 
    SL = 2e-006 
    SW = 2e-006 
    K =      0 
    TNOM =  300.1 
    CGSO = 8.5e-011 
    CGDO = 8.5e-011 
    CGBO = 2.56e-011 
    XPART =      0 
    RSH =      5 
    JSS = 0.0001 
    JSWS = 1e-011 
    JSWGS = 1e-010 
    PBS =      1 
    MJS =    0.5 
    PBSWS =      1 
    MJSWS =   0.33 
    CJS = 0.0005 
    CJSWS = 5e-010 
    NJS =      1 
    PBSWGS =      1 
    MJSWGS =   0.33 
    CJSWGS = 3e-010 
    XTIS =      3 
    JSD = 0.0001 
    JSWD = 1e-011 
    JSWGD = 1e-010 
    PBD =      1 
    MJD =    0.5 
    PBSWD =      1 
    MJSWD =   0.33 
    CJD = 0.0005 
    CJSWD = 5e-010 
    NJD =      1 
    PBSWGD =      1 
    MJSWGD =   0.33 
    CJSWGD = 5e-010 
    XTID =      3 
    LMLT =      1 
    WMLT =      1 
    LINT = 2.7e-009 
    LL =      0 
    LLC =      0 
    LLN =      1 
    LW =      0 
    LWC =      0 
    LWN =      1 
    LWL =      0 
    LWLC =      0 
    LMIN =      0 
    LMAX =      1 
    WINT = 5e-009 
    WL =      0 
    WLC =      0 
    WLN =      1 
    WW =      0 
    WWC =      0 
    WWN =      1 
    WWL =      0 
    WWLC =      0 
    WMIN =      0 
    WMAX =      1 
    NOIA = 6.188e+040 
    NOIB = 1.5e+025 
    NOIC = 8.75e+009 
    EM = 4.1e+007 
    EF =      1 
    AF =      1 
    KF =      0 
    TRS =      0 
    TRD =      0 
 

  **info** (d:\digital electronic\projects\ca_3\pseudo_nmos_mux\pseudo_nmos_mux.sp:54) DC voltage reset to initial transient source value              in source        0:vina                new dc=  0.0000D+00
 Warning:  Acde = 1 may be too small in BSIM4 model nmos with w=2.2e-007 l=3.2e-008.

 Warning:  Acde = 1 may be too small in BSIM4 model pmos with w=4.4e-007 l=3.2e-008.

 
      
 **info** set option symb=1 internally to help for convergence.
 *****************************************************************
 ******  option summary
 ******
 runlvl  = 3         bypass  = 2         
  Opening plot unit= 79
 file=d:\digital electronic\projects\ca_3\pseudo_nmos_mux\pseudo_nmos_mux.pa0  

1****** HSPICE -- D-2010.03-SP1 32-BIT (May 26 2010) winnt ******               
 ******  
 first line of the netlist must be blank.

  ******  operating point information tnom=  25.000 temp=  25.000 *****
 ***** operating point status is all       simulation time is     0.     
    node    =voltage      node    =voltage      node    =voltage

 +0:a       =   0.      0:a_bar   = 999.8539m 0:b       =   0.     
 +0:b_bar   = 999.8587m 0:out     = 482.2426m 0:s       =   0.     
 +0:s_bar   = 999.8587m 0:vdd     =   1.0000  0:w       = 249.6222m


 ****  voltage sources

 subckt                                              
 element  0:v1       0:vina     0:vinb     0:vinc    
  volts      1.0000     0.         0.         0.     
  current -189.6371u    1.2857n    1.2858n    1.2916n
  power    189.6371u    0.         0.         0.     

     total voltage source power dissipation=  189.6371u       watts




 **** mosfets


 subckt                                                          x_a       
 element  0:m_p      0:m_n_b_ba 0:m_n_s_ba 0:m_n_a_ba 0:m_n_s    1:mn      
 model    0:pmos     0:nmos     0:nmos     0:nmos     0:nmos     0:nmos    
 region       Linear     Linear     Linear     Linear     Cutoff     Cutoff
  id      -189.4046u   94.7025u   94.7025u  189.4056u    1.3167n   74.7209n
  ibs     -3.106e-24 -249.6396f -249.6396f  5.272e-25  2.436e-25  9.696e-25
  ibd      527.7574f -492.2426f -492.2426f -259.6216f -259.6216f   -1.0099p
  vgs       -1.0000   750.2365m  750.2365m  999.8539m    0.         0.     
  vds     -517.7574m  232.6204m  232.6204m  249.6222m  249.6222m  999.8539m
  vbs        0.      -249.6222m -249.6222m    0.         0.         0.     
  vth     -291.3200m  490.0085m  490.0085m  439.9391m  439.9391m  274.7604m
  vdsat   -487.9492m  173.9612m  173.9612m  311.1311m   39.4430m   38.2785m
  vod     -708.6800m  260.2280m  260.2280m  559.9148m -439.9391m -274.7604m
  beta       1.3183m    9.3843m    9.3843m    8.4600m   11.5775m   14.3318m
  gam eff  400.0000m  400.0000m  400.0000m  400.0000m  400.0000m  400.0000m
  gm       306.9122u  374.5524u  374.5524u  202.7634u   30.3448n    1.6566u
  gds      218.0347u  161.1762u  161.1762u  484.4915u    7.2418n  398.9052n
  gmb       70.9938u   73.4131u   73.4131u   52.6080u    8.3822n  397.5242n
  cdtot    378.1471a  189.8648a  189.8648a  197.3305a  162.7068a  136.5001a
  cgtot    548.7754a  258.7307a  258.7307a  263.6199a  157.5418a  145.9367a
  cstot    645.4609a  299.5801a  299.5801a  315.2077a  254.6947a  254.7099a
  cbtot    567.4609a  271.1231a  271.1231a  290.1600a  295.5625a  280.9788a
  cgs      378.8392a  170.5041a  170.5041a  175.8441a   79.0474a   79.0710a
  cgd      164.9381a   85.2683a   85.2683a   85.6555a   60.6434a   49.0189a



 subckt   x_a        x_b        x_b        x_s        x_s       
 element  1:mp       2:mn       2:mp       3:mn       3:mp      
 model    0:pmos     0:nmos     0:pmos     0:nmos     0:pmos    
 region       Linear     Cutoff     Linear     Cutoff     Linear
  id       -79.1823n   74.7228n  -76.6225n   74.7228n  -76.6225n
  ibs     -2.873e-25  9.696e-25 -2.873e-25  9.696e-25 -2.873e-25
  ibd      202.7551a   -1.0099p  196.2048a   -1.0099p  196.2048a
  vgs       -1.0000     0.        -1.0000     0.        -1.0000 
  vds     -146.0641u  999.8587m -141.3416u  999.8587m -141.3416u
  vbs        0.         0.         0.         0.         0.     
  vth     -430.7902m  274.7594m -430.7915m  274.7594m -430.7915m
  vdsat   -427.4310m   38.2784m -427.4304m   38.2784m -427.4304m
  vod     -569.2098m -274.7594m -569.2085m -274.7594m -569.2085m
  beta       1.2003m   14.3318m    1.2003m   14.3318m    1.2003m
  gam eff  400.0000m  400.0000m  400.0000m  400.0000m  400.0000m
  gm        90.6008n    1.6566u   87.6716n    1.6566u   87.6716n
  gds      542.0493u  398.9153n  542.0530u  398.9153n  542.0530u
  gmb       28.7818n  397.5337n   27.8514n  397.5337n   27.8514n
  cdtot    604.0215a  136.5000a  604.0261a  136.5000a  604.0261a
  cgtot    559.3083a  145.9367a  559.3084a  145.9367a  559.3084a
  cstot    563.6474a  254.7099a  563.6446a  254.7099a  563.6446a
  cbtot    602.0787a  280.9787a  602.0793a  280.9787a  602.0793a
  cgs      326.2382a   79.0710a  326.2368a   79.0710a  326.2368a
  cgd      230.4592a   49.0189a  230.4608a   49.0189a  230.4608a



 ******  
 first line of the netlist must be blank.

  ******  transient analysis tnom=  25.000 temp=  25.000 *****
   pow=  8.9119E-05  from=  1.0000E-09     to=  1.7000E-07
x

        time    voltage      voltage      voltage      voltage    
                    out           a            b            s     
    0.          482.2426m      0.           0.           0.       
   10.00000p    482.2426m      0.           0.           0.       
   20.00000p    482.2426m      0.           0.           0.       
   30.00000p    482.2426m      0.           0.           0.       
   40.00000p    482.2426m      0.           0.           0.       
   50.00000p    482.2426m      0.           0.           0.       
   60.00000p    482.2426m      0.           0.           0.       
   70.00000p    482.2426m      0.           0.           0.       
   80.00000p    482.2426m      0.           0.           0.       
   90.00000p    482.2426m      0.           0.           0.       
  100.00000p    482.2426m      0.           0.           0.       
  110.00000p    482.2426m      0.           0.           0.       
  120.00000p    482.2426m      0.           0.           0.       
  130.00000p    482.2426m      0.           0.           0.       
  140.00000p    482.2426m      0.           0.           0.       
  150.00000p    482.2426m      0.           0.           0.       
  160.00000p    482.2426m      0.           0.           0.       
  170.00000p    482.2426m      0.           0.           0.       
  180.00000p    482.2426m      0.           0.           0.       
  190.00000p    482.2426m      0.           0.           0.       
  200.00000p    482.2426m      0.           0.           0.       
  210.00000p    482.2426m      0.           0.           0.       
  220.00000p    482.2426m      0.           0.           0.       
  230.00000p    482.2426m      0.           0.           0.       
  240.00000p    482.2426m      0.           0.           0.       
  250.00000p    482.2426m      0.           0.           0.       
  260.00000p    482.2426m      0.           0.           0.       
  270.00000p    482.2426m      0.           0.           0.       
  280.00000p    482.2426m      0.           0.           0.       
  290.00000p    482.2426m      0.           0.           0.       
  300.00000p    482.2426m      0.           0.           0.       
  310.00000p    482.2426m      0.           0.           0.       
  320.00000p    482.2426m      0.           0.           0.       
  330.00000p    482.2426m      0.           0.           0.       
  340.00000p    482.2426m      0.           0.           0.       
  350.00000p    482.2426m      0.           0.           0.       
  360.00000p    482.2426m      0.           0.           0.       
  370.00000p    482.2426m      0.           0.           0.       
  380.00000p    482.2426m      0.           0.           0.       
  390.00000p    482.2426m      0.           0.           0.       
  400.00000p    482.2426m      0.           0.           0.       
  410.00000p    482.2426m      0.           0.           0.       
  420.00000p    482.2426m      0.           0.           0.       
  430.00000p    482.2426m      0.           0.           0.       
  440.00000p    482.2426m      0.           0.           0.       
  450.00000p    482.2426m      0.           0.           0.       
  460.00000p    482.2426m      0.           0.           0.       
  470.00000p    482.2426m      0.           0.           0.       
  480.00000p    482.2426m      0.           0.           0.       
  490.00000p    482.2426m      0.           0.           0.       
  500.00000p    482.2426m      0.           0.           0.       
  510.00000p    482.2426m      0.           0.           0.       
  520.00000p    482.2426m      0.           0.           0.       
  530.00000p    482.2426m      0.           0.           0.       
  540.00000p    482.2426m      0.           0.           0.       
  550.00000p    482.2426m      0.           0.           0.       
  560.00000p    482.2426m      0.           0.           0.       
  570.00000p    482.2426m      0.           0.           0.       
  580.00000p    482.2426m      0.           0.           0.       
  590.00000p    482.2426m      0.           0.           0.       
  600.00000p    482.2426m      0.           0.           0.       
  610.00000p    482.2426m      0.           0.           0.       
  620.00000p    482.2426m      0.           0.           0.       
  630.00000p    482.2426m      0.           0.           0.       
  640.00000p    482.2426m      0.           0.           0.       
  650.00000p    482.2426m      0.           0.           0.       
  660.00000p    482.2426m      0.           0.           0.       
  670.00000p    482.2426m      0.           0.           0.       
  680.00000p    482.2426m      0.           0.           0.       
  690.00000p    482.2426m      0.           0.           0.       
  700.00000p    482.2426m      0.           0.           0.       
  710.00000p    482.2426m      0.           0.           0.       
  720.00000p    482.2426m      0.           0.           0.       
  730.00000p    482.2426m      0.           0.           0.       
  740.00000p    482.2426m      0.           0.           0.       
  750.00000p    482.2426m      0.           0.           0.       
  760.00000p    482.2426m      0.           0.           0.       
  770.00000p    482.2426m      0.           0.           0.       
  780.00000p    482.2426m      0.           0.           0.       
  790.00000p    482.2426m      0.           0.           0.       
  800.00000p    482.2426m      0.           0.           0.       
  810.00000p    482.2426m      0.           0.           0.       
  820.00000p    482.2426m      0.           0.           0.       
  830.00000p    482.2426m      0.           0.           0.       
  840.00000p    482.2426m      0.           0.           0.       
  850.00000p    482.2426m      0.           0.           0.       
  860.00000p    482.2426m      0.           0.           0.       
  870.00000p    482.2426m      0.           0.           0.       
  880.00000p    482.2426m      0.           0.           0.       
  890.00000p    482.2426m      0.           0.           0.       
  900.00000p    482.2426m      0.           0.           0.       
  910.00000p    482.2426m      0.           0.           0.       
  920.00000p    482.2426m      0.           0.           0.       
  930.00000p    482.2426m      0.           0.           0.       
  940.00000p    482.2426m      0.           0.           0.       
  950.00000p    482.2426m      0.           0.           0.       
  960.00000p    482.2426m      0.           0.           0.       
  970.00000p    482.2426m      0.           0.           0.       
  980.00000p    482.2426m      0.           0.           0.       
  990.00000p    482.2426m      0.           0.           0.       
    1.00000n    482.2426m      0.           0.           0.       
    1.01000n    482.2426m      0.           0.           0.       
    1.02000n    482.2426m      0.           0.           0.       
    1.03000n    482.2426m      0.           0.           0.       
    1.04000n    482.2426m      0.           0.           0.       
    1.05000n    482.2426m      0.           0.           0.       
    1.06000n    482.2426m      0.           0.           0.       
    1.07000n    482.2426m      0.           0.           0.       
    1.08000n    482.2426m      0.           0.           0.       
    1.09000n    482.2426m      0.           0.           0.       
    1.10000n    482.2426m      0.           0.           0.       
    1.11000n    482.2426m      0.           0.           0.       
    1.12000n    482.2426m      0.           0.           0.       
    1.13000n    482.2426m      0.           0.           0.       
    1.14000n    482.2426m      0.           0.           0.       
    1.15000n    482.2426m      0.           0.           0.       
    1.16000n    482.2426m      0.           0.           0.       
    1.17000n    482.2426m      0.           0.           0.       
    1.18000n    482.2426m      0.           0.           0.       
    1.19000n    482.2426m      0.           0.           0.       
    1.20000n    482.2426m      0.           0.           0.       
    1.21000n    482.2426m      0.           0.           0.       
    1.22000n    482.2426m      0.           0.           0.       
    1.23000n    482.2426m      0.           0.           0.       
    1.24000n    482.2426m      0.           0.           0.       
    1.25000n    482.2426m      0.           0.           0.       
    1.26000n    482.2426m      0.           0.           0.       
    1.27000n    482.2426m      0.           0.           0.       
    1.28000n    482.2426m      0.           0.           0.       
    1.29000n    482.2426m      0.           0.           0.       
    1.30000n    482.2426m      0.           0.           0.       
    1.31000n    482.2426m      0.           0.           0.       
    1.32000n    482.2426m      0.           0.           0.       
    1.33000n    482.2426m      0.           0.           0.       
    1.34000n    482.2426m      0.           0.           0.       
    1.35000n    482.2426m      0.           0.           0.       
    1.36000n    482.2426m      0.           0.           0.       
    1.37000n    482.2426m      0.           0.           0.       
    1.38000n    482.2426m      0.           0.           0.       
    1.39000n    482.2426m      0.           0.           0.       
    1.40000n    482.2426m      0.           0.           0.       
    1.41000n    482.2426m      0.           0.           0.       
    1.42000n    482.2426m      0.           0.           0.       
    1.43000n    482.2426m      0.           0.           0.       
    1.44000n    482.2426m      0.           0.           0.       
    1.45000n    482.2426m      0.           0.           0.       
    1.46000n    482.2426m      0.           0.           0.       
    1.47000n    482.2426m      0.           0.           0.       
    1.48000n    482.2426m      0.           0.           0.       
    1.49000n    482.2426m      0.           0.           0.       
    1.50000n    482.2426m      0.           0.           0.       
    1.51000n    482.2426m      0.           0.           0.       
    1.52000n    482.2426m      0.           0.           0.       
    1.53000n    482.2426m      0.           0.           0.       
    1.54000n    482.2426m      0.           0.           0.       
    1.55000n    482.2426m      0.           0.           0.       
    1.56000n    482.2426m      0.           0.           0.       
    1.57000n    482.2426m      0.           0.           0.       
    1.58000n    482.2426m      0.           0.           0.       
    1.59000n    482.2426m      0.           0.           0.       
    1.60000n    482.2426m      0.           0.           0.       
    1.61000n    482.2426m      0.           0.           0.       
    1.62000n    482.2426m      0.           0.           0.       
    1.63000n    482.2426m      0.           0.           0.       
    1.64000n    482.2426m      0.           0.           0.       
    1.65000n    482.2426m      0.           0.           0.       
    1.66000n    482.2426m      0.           0.           0.       
    1.67000n    482.2426m      0.           0.           0.       
    1.68000n    482.2426m      0.           0.           0.       
    1.69000n    482.2426m      0.           0.           0.       
    1.70000n    482.2426m      0.           0.           0.       
    1.71000n    482.2426m      0.           0.           0.       
    1.72000n    482.2426m      0.           0.           0.       
    1.73000n    482.2426m      0.           0.           0.       
    1.74000n    482.2426m      0.           0.           0.       
    1.75000n    482.2426m      0.           0.           0.       
    1.76000n    482.2426m      0.           0.           0.       
    1.77000n    482.2426m      0.           0.           0.       
    1.78000n    482.2426m      0.           0.           0.       
    1.79000n    482.2426m      0.           0.           0.       
    1.80000n    482.2426m      0.           0.           0.       
    1.81000n    482.2426m      0.           0.           0.       
    1.82000n    482.2426m      0.           0.           0.       
    1.83000n    482.2426m      0.           0.           0.       
    1.84000n    482.2426m      0.           0.           0.       
    1.85000n    482.2426m      0.           0.           0.       
    1.86000n    482.2426m      0.           0.           0.       
    1.87000n    482.2426m      0.           0.           0.       
    1.88000n    482.2426m      0.           0.           0.       
    1.89000n    482.2426m      0.           0.           0.       
    1.90000n    482.2426m      0.           0.           0.       
    1.91000n    482.2426m      0.           0.           0.       
    1.92000n    482.2426m      0.           0.           0.       
    1.93000n    482.2426m      0.           0.           0.       
    1.94000n    482.2426m      0.           0.           0.       
    1.95000n    482.2426m      0.           0.           0.       
    1.96000n    482.2426m      0.           0.           0.       
    1.97000n    482.2426m      0.           0.           0.       
    1.98000n    482.2426m      0.           0.           0.       
    1.99000n    482.2426m      0.           0.           0.       
    2.00000n    482.2426m      0.           0.           0.       
    2.01000n    482.2426m      0.           0.           0.       
    2.02000n    482.2426m      0.           0.           0.       
    2.03000n    482.2426m      0.           0.           0.       
    2.04000n    482.2426m      0.           0.           0.       
    2.05000n    482.2426m      0.           0.           0.       
    2.06000n    482.2426m      0.           0.           0.       
    2.07000n    482.2426m      0.           0.           0.       
    2.08000n    482.2426m      0.           0.           0.       
    2.09000n    482.2426m      0.           0.           0.       
    2.10000n    482.2426m      0.           0.           0.       
    2.11000n    482.2426m      0.           0.           0.       
    2.12000n    482.2426m      0.           0.           0.       
    2.13000n    482.2426m      0.           0.           0.       
    2.14000n    482.2426m      0.           0.           0.       
    2.15000n    482.2426m      0.           0.           0.       
    2.16000n    482.2426m      0.           0.           0.       
    2.17000n    482.2426m      0.           0.           0.       
    2.18000n    482.2426m      0.           0.           0.       
    2.19000n    482.2426m      0.           0.           0.       
    2.20000n    482.2426m      0.           0.           0.       
    2.21000n    482.2426m      0.           0.           0.       
    2.22000n    482.2426m      0.           0.           0.       
    2.23000n    482.2426m      0.           0.           0.       
    2.24000n    482.2426m      0.           0.           0.       
    2.25000n    482.2426m      0.           0.           0.       
    2.26000n    482.2426m      0.           0.           0.       
    2.27000n    482.2426m      0.           0.           0.       
    2.28000n    482.2426m      0.           0.           0.       
    2.29000n    482.2426m      0.           0.           0.       
    2.30000n    482.2426m      0.           0.           0.       
    2.31000n    482.2426m      0.           0.           0.       
    2.32000n    482.2426m      0.           0.           0.       
    2.33000n    482.2426m      0.           0.           0.       
    2.34000n    482.2426m      0.           0.           0.       
    2.35000n    482.2426m      0.           0.           0.       
    2.36000n    482.2426m      0.           0.           0.       
    2.37000n    482.2426m      0.           0.           0.       
    2.38000n    482.2426m      0.           0.           0.       
    2.39000n    482.2426m      0.           0.           0.       
    2.40000n    482.2426m      0.           0.           0.       
    2.41000n    482.2426m      0.           0.           0.       
    2.42000n    482.2426m      0.           0.           0.       
    2.43000n    482.2426m      0.           0.           0.       
    2.44000n    482.2426m      0.           0.           0.       
    2.45000n    482.2426m      0.           0.           0.       
    2.46000n    482.2426m      0.           0.           0.       
    2.47000n    482.2426m      0.           0.           0.       
    2.48000n    482.2426m      0.           0.           0.       
    2.49000n    482.2426m      0.           0.           0.       
    2.50000n    466.8383m      0.           0.           1.0000   
    2.51000n    488.6246m      0.           0.           1.0000   
    2.52000n    489.1325m      0.           0.           1.0000   
    2.53000n    489.0728m      0.           0.           1.0000   
    2.54000n    489.0682m      0.           0.           1.0000   
    2.55000n    489.0816m      0.           0.           1.0000   
    2.56000n    489.0944m      0.           0.           1.0000   
    2.57000n    489.0911m      0.           0.           1.0000   
    2.58000n    489.0879m      0.           0.           1.0000   
    2.59000n    489.0846m      0.           0.           1.0000   
    2.60000n    489.0814m      0.           0.           1.0000   
    2.61000n    489.0781m      0.           0.           1.0000   
    2.62000n    489.0749m      0.           0.           1.0000   
    2.63000n    489.0716m      0.           0.           1.0000   
    2.64000n    489.0692m      0.           0.           1.0000   
    2.65000n    489.0700m      0.           0.           1.0000   
    2.66000n    489.0708m      0.           0.           1.0000   
    2.67000n    489.0716m      0.           0.           1.0000   
    2.68000n    489.0724m      0.           0.           1.0000   
    2.69000n    489.0732m      0.           0.           1.0000   
    2.70000n    489.0740m      0.           0.           1.0000   
    2.71000n    489.0748m      0.           0.           1.0000   
    2.72000n    489.0756m      0.           0.           1.0000   
    2.73000n    489.0764m      0.           0.           1.0000   
    2.74000n    489.0772m      0.           0.           1.0000   
    2.75000n    489.0780m      0.           0.           1.0000   
    2.76000n    489.0788m      0.           0.           1.0000   
    2.77000n    489.0796m      0.           0.           1.0000   
    2.78000n    489.0804m      0.           0.           1.0000   
    2.79000n    489.0812m      0.           0.           1.0000   
    2.80000n    489.0820m      0.           0.           1.0000   
    2.81000n    489.0828m      0.           0.           1.0000   
    2.82000n    489.0836m      0.           0.           1.0000   
    2.83000n    489.0844m      0.           0.           1.0000   
    2.84000n    489.0852m      0.           0.           1.0000   
    2.85000n    489.0860m      0.           0.           1.0000   
    2.86000n    489.0868m      0.           0.           1.0000   
    2.87000n    489.0876m      0.           0.           1.0000   
    2.88000n    489.0884m      0.           0.           1.0000   
    2.89000n    489.0888m      0.           0.           1.0000   
    2.90000n    489.0886m      0.           0.           1.0000   
    2.91000n    489.0883m      0.           0.           1.0000   
    2.92000n    489.0881m      0.           0.           1.0000   
    2.93000n    489.0878m      0.           0.           1.0000   
    2.94000n    489.0876m      0.           0.           1.0000   
    2.95000n    489.0873m      0.           0.           1.0000   
    2.96000n    489.0871m      0.           0.           1.0000   
    2.97000n    489.0869m      0.           0.           1.0000   
    2.98000n    489.0866m      0.           0.           1.0000   
    2.99000n    489.0864m      0.           0.           1.0000   
    3.00000n    489.0861m      0.           0.           1.0000   
    3.01000n    489.0859m      0.           0.           1.0000   
    3.02000n    489.0856m      0.           0.           1.0000   
    3.03000n    489.0854m      0.           0.           1.0000   
    3.04000n    489.0852m      0.           0.           1.0000   
    3.05000n    489.0849m      0.           0.           1.0000   
    3.06000n    489.0847m      0.           0.           1.0000   
    3.07000n    489.0844m      0.           0.           1.0000   
    3.08000n    489.0842m      0.           0.           1.0000   
    3.09000n    489.0839m      0.           0.           1.0000   
    3.10000n    489.0837m      0.           0.           1.0000   
    3.11000n    489.0835m      0.           0.           1.0000   
    3.12000n    489.0832m      0.           0.           1.0000   
    3.13000n    489.0830m      0.           0.           1.0000   
    3.14000n    489.0827m      0.           0.           1.0000   
    3.15000n    489.0825m      0.           0.           1.0000   
    3.16000n    489.0822m      0.           0.           1.0000   
    3.17000n    489.0820m      0.           0.           1.0000   
    3.18000n    489.0818m      0.           0.           1.0000   
    3.19000n    489.0815m      0.           0.           1.0000   
    3.20000n    489.0813m      0.           0.           1.0000   
    3.21000n    489.0810m      0.           0.           1.0000   
    3.22000n    489.0808m      0.           0.           1.0000   
    3.23000n    489.0806m      0.           0.           1.0000   
    3.24000n    489.0803m      0.           0.           1.0000   
    3.25000n    489.0801m      0.           0.           1.0000   
    3.26000n    489.0798m      0.           0.           1.0000   
    3.27000n    489.0796m      0.           0.           1.0000   
    3.28000n    489.0793m      0.           0.           1.0000   
    3.29000n    489.0791m      0.           0.           1.0000   
    3.30000n    489.0789m      0.           0.           1.0000   
    3.31000n    489.0786m      0.           0.           1.0000   
    3.32000n    489.0784m      0.           0.           1.0000   
    3.33000n    489.0781m      0.           0.           1.0000   
    3.34000n    489.0779m      0.           0.           1.0000   
    3.35000n    489.0776m      0.           0.           1.0000   
    3.36000n    489.0774m      0.           0.           1.0000   
    3.37000n    489.0772m      0.           0.           1.0000   
    3.38000n    489.0769m      0.           0.           1.0000   
    3.39000n    489.0767m      0.           0.           1.0000   
    3.40000n    489.0764m      0.           0.           1.0000   
    3.41000n    489.0762m      0.           0.           1.0000   
    3.42000n    489.0759m      0.           0.           1.0000   
    3.43000n    489.0757m      0.           0.           1.0000   
    3.44000n    489.0755m      0.           0.           1.0000   
    3.45000n    489.0752m      0.           0.           1.0000   
    3.46000n    489.0750m      0.           0.           1.0000   
    3.47000n    489.0747m      0.           0.           1.0000   
    3.48000n    489.0745m      0.           0.           1.0000   
    3.49000n    489.0742m      0.           0.           1.0000   
    3.50000n    489.0740m      0.           0.           1.0000   
    3.51000n    489.0738m      0.           0.           1.0000   
    3.52000n    489.0735m      0.           0.           1.0000   
    3.53000n    489.0733m      0.           0.           1.0000   
    3.54000n    489.0730m      0.           0.           1.0000   
    3.55000n    489.0728m      0.           0.           1.0000   
    3.56000n    489.0725m      0.           0.           1.0000   
    3.57000n    489.0723m      0.           0.           1.0000   
    3.58000n    489.0721m      0.           0.           1.0000   
    3.59000n    489.0718m      0.           0.           1.0000   
    3.60000n    489.0716m      0.           0.           1.0000   
    3.61000n    489.0713m      0.           0.           1.0000   
    3.62000n    489.0711m      0.           0.           1.0000   
    3.63000n    489.0708m      0.           0.           1.0000   
    3.64000n    489.0706m      0.           0.           1.0000   
    3.65000n    489.0704m      0.           0.           1.0000   
    3.66000n    489.0701m      0.           0.           1.0000   
    3.67000n    489.0699m      0.           0.           1.0000   
    3.68000n    489.0699m      0.           0.           1.0000   
    3.69000n    489.0701m      0.           0.           1.0000   
    3.70000n    489.0702m      0.           0.           1.0000   
    3.71000n    489.0704m      0.           0.           1.0000   
    3.72000n    489.0705m      0.           0.           1.0000   
    3.73000n    489.0706m      0.           0.           1.0000   
    3.74000n    489.0708m      0.           0.           1.0000   
    3.75000n    489.0709m      0.           0.           1.0000   
    3.76000n    489.0710m      0.           0.           1.0000   
    3.77000n    489.0712m      0.           0.           1.0000   
    3.78000n    489.0713m      0.           0.           1.0000   
    3.79000n    489.0715m      0.           0.           1.0000   
    3.80000n    489.0716m      0.           0.           1.0000   
    3.81000n    489.0717m      0.           0.           1.0000   
    3.82000n    489.0719m      0.           0.           1.0000   
    3.83000n    489.0720m      0.           0.           1.0000   
    3.84000n    489.0721m      0.           0.           1.0000   
    3.85000n    489.0723m      0.           0.           1.0000   
    3.86000n    489.0724m      0.           0.           1.0000   
    3.87000n    489.0725m      0.           0.           1.0000   
    3.88000n    489.0727m      0.           0.           1.0000   
    3.89000n    489.0728m      0.           0.           1.0000   
    3.90000n    489.0730m      0.           0.           1.0000   
    3.91000n    489.0731m      0.           0.           1.0000   
    3.92000n    489.0732m      0.           0.           1.0000   
    3.93000n    489.0734m      0.           0.           1.0000   
    3.94000n    489.0735m      0.           0.           1.0000   
    3.95000n    489.0736m      0.           0.           1.0000   
    3.96000n    489.0738m      0.           0.           1.0000   
    3.97000n    489.0739m      0.           0.           1.0000   
    3.98000n    489.0741m      0.           0.           1.0000   
    3.99000n    489.0742m      0.           0.           1.0000   
    4.00000n    489.0743m      0.           0.           1.0000   
    4.01000n    489.0745m      0.           0.           1.0000   
    4.02000n    489.0746m      0.           0.           1.0000   
    4.03000n    489.0747m      0.           0.           1.0000   
    4.04000n    489.0749m      0.           0.           1.0000   
    4.05000n    489.0750m      0.           0.           1.0000   
    4.06000n    489.0751m      0.           0.           1.0000   
    4.07000n    489.0753m      0.           0.           1.0000   
    4.08000n    489.0754m      0.           0.           1.0000   
    4.09000n    489.0756m      0.           0.           1.0000   
    4.10000n    489.0757m      0.           0.           1.0000   
    4.11000n    489.0758m      0.           0.           1.0000   
    4.12000n    489.0760m      0.           0.           1.0000   
    4.13000n    489.0761m      0.           0.           1.0000   
    4.14000n    489.0762m      0.           0.           1.0000   
    4.15000n    489.0764m      0.           0.           1.0000   
    4.16000n    489.0765m      0.           0.           1.0000   
    4.17000n    489.0767m      0.           0.           1.0000   
    4.18000n    489.0768m      0.           0.           1.0000   
    4.19000n    489.0769m      0.           0.           1.0000   
    4.20000n    489.0771m      0.           0.           1.0000   
    4.21000n    489.0772m      0.           0.           1.0000   
    4.22000n    489.0773m      0.           0.           1.0000   
    4.23000n    489.0775m      0.           0.           1.0000   
    4.24000n    489.0776m      0.           0.           1.0000   
    4.25000n    489.0777m      0.           0.           1.0000   
    4.26000n    489.0779m      0.           0.           1.0000   
    4.27000n    489.0780m      0.           0.           1.0000   
    4.28000n    489.0782m      0.           0.           1.0000   
    4.29000n    489.0783m      0.           0.           1.0000   
    4.30000n    489.0784m      0.           0.           1.0000   
    4.31000n    489.0786m      0.           0.           1.0000   
    4.32000n    489.0787m      0.           0.           1.0000   
    4.33000n    489.0788m      0.           0.           1.0000   
    4.34000n    489.0790m      0.           0.           1.0000   
    4.35000n    489.0791m      0.           0.           1.0000   
    4.36000n    489.0792m      0.           0.           1.0000   
    4.37000n    489.0794m      0.           0.           1.0000   
    4.38000n    489.0795m      0.           0.           1.0000   
    4.39000n    489.0797m      0.           0.           1.0000   
    4.40000n    489.0798m      0.           0.           1.0000   
    4.41000n    489.0799m      0.           0.           1.0000   
    4.42000n    489.0801m      0.           0.           1.0000   
    4.43000n    489.0802m      0.           0.           1.0000   
    4.44000n    489.0803m      0.           0.           1.0000   
    4.45000n    489.0805m      0.           0.           1.0000   
    4.46000n    489.0806m      0.           0.           1.0000   
    4.47000n    489.0808m      0.           0.           1.0000   
    4.48000n    489.0809m      0.           0.           1.0000   
    4.49000n    489.0810m      0.           0.           1.0000   
    4.50000n    489.0812m      0.           0.           1.0000   
    4.51000n    489.0813m      0.           0.           1.0000   
    4.52000n    489.0814m      0.           0.           1.0000   
    4.53000n    489.0816m      0.           0.           1.0000   
    4.54000n    489.0817m      0.           0.           1.0000   
    4.55000n    489.0818m      0.           0.           1.0000   
    4.56000n    489.0820m      0.           0.           1.0000   
    4.57000n    489.0821m      0.           0.           1.0000   
    4.58000n    489.0823m      0.           0.           1.0000   
    4.59000n    489.0824m      0.           0.           1.0000   
    4.60000n    489.0825m      0.           0.           1.0000   
    4.61000n    489.0827m      0.           0.           1.0000   
    4.62000n    489.0828m      0.           0.           1.0000   
    4.63000n    489.0829m      0.           0.           1.0000   
    4.64000n    489.0831m      0.           0.           1.0000   
    4.65000n    489.0832m      0.           0.           1.0000   
    4.66000n    489.0834m      0.           0.           1.0000   
    4.67000n    489.0835m      0.           0.           1.0000   
    4.68000n    489.0836m      0.           0.           1.0000   
    4.69000n    489.0838m      0.           0.           1.0000   
    4.70000n    489.0839m      0.           0.           1.0000   
    4.71000n    489.0840m      0.           0.           1.0000   
    4.72000n    489.0842m      0.           0.           1.0000   
    4.73000n    489.0843m      0.           0.           1.0000   
    4.74000n    489.0844m      0.           0.           1.0000   
    4.75000n    489.0846m      0.           0.           1.0000   
    4.76000n    489.0847m      0.           0.           1.0000   
    4.77000n    489.0849m      0.           0.           1.0000   
    4.78000n    489.0850m      0.           0.           1.0000   
    4.79000n    489.0851m      0.           0.           1.0000   
    4.80000n    489.0853m      0.           0.           1.0000   
    4.81000n    489.0854m      0.           0.           1.0000   
    4.82000n    489.0855m      0.           0.           1.0000   
    4.83000n    489.0857m      0.           0.           1.0000   
    4.84000n    489.0858m      0.           0.           1.0000   
    4.85000n    489.0860m      0.           0.           1.0000   
    4.86000n    489.0861m      0.           0.           1.0000   
    4.87000n    489.0862m      0.           0.           1.0000   
    4.88000n    489.0864m      0.           0.           1.0000   
    4.89000n    489.0865m      0.           0.           1.0000   
    4.90000n    489.0866m      0.           0.           1.0000   
    4.91000n    489.0868m      0.           0.           1.0000   
    4.92000n    489.0869m      0.           0.           1.0000   
    4.93000n    489.0870m      0.           0.           1.0000   
    4.94000n    489.0872m      0.           0.           1.0000   
    4.95000n    489.0873m      0.           0.           1.0000   
    4.96000n    489.0875m      0.           0.           1.0000   
    4.97000n    489.0876m      0.           0.           1.0000   
    4.98000n    489.0877m      0.           0.           1.0000   
    4.99000n    489.0879m      0.           0.           1.0000   
    5.00000n    607.8510m      0.           0.           0.       
    5.01000n    492.6710m      0.           0.           0.       
    5.02000n    482.5070m      0.           0.           0.       
    5.03000n    482.2240m      0.           0.           0.       
    5.04000n    482.2463m      0.           0.           0.       
    5.05000n    482.2498m      0.           0.           0.       
    5.06000n    482.2458m      0.           0.           0.       
    5.07000n    482.2417m      0.           0.           0.       
    5.08000n    482.2403m      0.           0.           0.       
    5.09000n    482.2390m      0.           0.           0.       
    5.10000n    482.2377m      0.           0.           0.       
    5.11000n    482.2364m      0.           0.           0.       
    5.12000n    482.2352m      0.           0.           0.       
    5.13000n    482.2339m      0.           0.           0.       
    5.14000n    482.2326m      0.           0.           0.       
    5.15000n    482.2313m      0.           0.           0.       
    5.16000n    482.2302m      0.           0.           0.       
    5.17000n    482.2309m      0.           0.           0.       
    5.18000n    482.2316m      0.           0.           0.       
    5.19000n    482.2323m      0.           0.           0.       
    5.20000n    482.2330m      0.           0.           0.       
    5.21000n    482.2338m      0.           0.           0.       
    5.22000n    482.2345m      0.           0.           0.       
    5.23000n    482.2352m      0.           0.           0.       
    5.24000n    482.2359m      0.           0.           0.       
    5.25000n    482.2366m      0.           0.           0.       
    5.26000n    482.2374m      0.           0.           0.       
    5.27000n    482.2381m      0.           0.           0.       
    5.28000n    482.2388m      0.           0.           0.       
    5.29000n    482.2395m      0.           0.           0.       
    5.30000n    482.2403m      0.           0.           0.       
    5.31000n    482.2410m      0.           0.           0.       
    5.32000n    482.2417m      0.           0.           0.       
    5.33000n    482.2424m      0.           0.           0.       
    5.34000n    482.2431m      0.           0.           0.       
    5.35000n    482.2439m      0.           0.           0.       
    5.36000n    482.2446m      0.           0.           0.       
    5.37000n    482.2453m      0.           0.           0.       
    5.38000n    482.2460m      0.           0.           0.       
    5.39000n    482.2467m      0.           0.           0.       
    5.40000n    482.2475m      0.           0.           0.       
    5.41000n    482.2482m      0.           0.           0.       
    5.42000n    482.2489m      0.           0.           0.       
    5.43000n    482.2496m      0.           0.           0.       
    5.44000n    482.2504m      0.           0.           0.       
    5.45000n    482.2505m      0.           0.           0.       
    5.46000n    482.2502m      0.           0.           0.       
    5.47000n    482.2500m      0.           0.           0.       
    5.48000n    482.2497m      0.           0.           0.       
    5.49000n    482.2495m      0.           0.           0.       
    5.50000n    482.2492m      0.           0.           0.       
    5.51000n    482.2490m      0.           0.           0.       
    5.52000n    482.2487m      0.           0.           0.       
    5.53000n    482.2485m      0.           0.           0.       
    5.54000n    482.2482m      0.           0.           0.       
    5.55000n    482.2480m      0.           0.           0.       
    5.56000n    482.2477m      0.           0.           0.       
    5.57000n    482.2475m      0.           0.           0.       
    5.58000n    482.2472m      0.           0.           0.       
    5.59000n    482.2470m      0.           0.           0.       
    5.60000n    482.2467m      0.           0.           0.       
    5.61000n    482.2465m      0.           0.           0.       
    5.62000n    482.2462m      0.           0.           0.       
    5.63000n    482.2460m      0.           0.           0.       
    5.64000n    482.2458m      0.           0.           0.       
    5.65000n    482.2455m      0.           0.           0.       
    5.66000n    482.2453m      0.           0.           0.       
    5.67000n    482.2450m      0.           0.           0.       
    5.68000n    482.2448m      0.           0.           0.       
    5.69000n    482.2445m      0.           0.           0.       
    5.70000n    482.2443m      0.           0.           0.       
    5.71000n    482.2440m      0.           0.           0.       
    5.72000n    482.2438m      0.           0.           0.       
    5.73000n    482.2435m      0.           0.           0.       
    5.74000n    482.2433m      0.           0.           0.       
    5.75000n    482.2430m      0.           0.           0.       
    5.76000n    482.2428m      0.           0.           0.       
    5.77000n    482.2425m      0.           0.           0.       
    5.78000n    482.2423m      0.           0.           0.       
    5.79000n    482.2420m      0.           0.           0.       
    5.80000n    482.2418m      0.           0.           0.       
    5.81000n    482.2415m      0.           0.           0.       
    5.82000n    482.2413m      0.           0.           0.       
    5.83000n    482.2410m      0.           0.           0.       
    5.84000n    482.2408m      0.           0.           0.       
    5.85000n    482.2405m      0.           0.           0.       
    5.86000n    482.2403m      0.           0.           0.       
    5.87000n    482.2400m      0.           0.           0.       
    5.88000n    482.2398m      0.           0.           0.       
    5.89000n    482.2395m      0.           0.           0.       
    5.90000n    482.2393m      0.           0.           0.       
    5.91000n    482.2390m      0.           0.           0.       
    5.92000n    482.2388m      0.           0.           0.       
    5.93000n    482.2385m      0.           0.           0.       
    5.94000n    482.2383m      0.           0.           0.       
    5.95000n    482.2380m      0.           0.           0.       
    5.96000n    482.2378m      0.           0.           0.       
    5.97000n    482.2375m      0.           0.           0.       
    5.98000n    482.2373m      0.           0.           0.       
    5.99000n    482.2370m      0.           0.           0.       
    6.00000n    482.2368m      0.           0.           0.       
    6.01000n    482.2366m      0.           0.           0.       
    6.02000n    482.2363m      0.           0.           0.       
    6.03000n    482.2361m      0.           0.           0.       
    6.04000n    482.2358m      0.           0.           0.       
    6.05000n    482.2356m      0.           0.           0.       
    6.06000n    482.2353m      0.           0.           0.       
    6.07000n    482.2351m      0.           0.           0.       
    6.08000n    482.2348m      0.           0.           0.       
    6.09000n    482.2346m      0.           0.           0.       
    6.10000n    482.2343m      0.           0.           0.       
    6.11000n    482.2341m      0.           0.           0.       
    6.12000n    482.2338m      0.           0.           0.       
    6.13000n    482.2336m      0.           0.           0.       
    6.14000n    482.2333m      0.           0.           0.       
    6.15000n    482.2331m      0.           0.           0.       
    6.16000n    482.2328m      0.           0.           0.       
    6.17000n    482.2326m      0.           0.           0.       
    6.18000n    482.2323m      0.           0.           0.       
    6.19000n    482.2321m      0.           0.           0.       
    6.20000n    482.2318m      0.           0.           0.       
    6.21000n    482.2316m      0.           0.           0.       
    6.22000n    482.2313m      0.           0.           0.       
    6.23000n    482.2311m      0.           0.           0.       
    6.24000n    482.2308m      0.           0.           0.       
    6.25000n    482.2306m      0.           0.           0.       
    6.26000n    482.2303m      0.           0.           0.       
    6.27000n    482.2301m      0.           0.           0.       
    6.28000n    482.2298m      0.           0.           0.       
    6.29000n    482.2296m      0.           0.           0.       
    6.30000n    482.2293m      0.           0.           0.       
    6.31000n    482.2294m      0.           0.           0.       
    6.32000n    482.2296m      0.           0.           0.       
    6.33000n    482.2298m      0.           0.           0.       
    6.34000n    482.2300m      0.           0.           0.       
    6.35000n    482.2302m      0.           0.           0.       
    6.36000n    482.2303m      0.           0.           0.       
    6.37000n    482.2305m      0.           0.           0.       
    6.38000n    482.2307m      0.           0.           0.       
    6.39000n    482.2309m      0.           0.           0.       
    6.40000n    482.2311m      0.           0.           0.       
    6.41000n    482.2313m      0.           0.           0.       
    6.42000n    482.2314m      0.           0.           0.       
    6.43000n    482.2316m      0.           0.           0.       
    6.44000n    482.2318m      0.           0.           0.       
    6.45000n    482.2320m      0.           0.           0.       
    6.46000n    482.2322m      0.           0.           0.       
    6.47000n    482.2324m      0.           0.           0.       
    6.48000n    482.2325m      0.           0.           0.       
    6.49000n    482.2327m      0.           0.           0.       
    6.50000n    482.2329m      0.           0.           0.       
    6.51000n    482.2331m      0.           0.           0.       
    6.52000n    482.2333m      0.           0.           0.       
    6.53000n    482.2334m      0.           0.           0.       
    6.54000n    482.2336m      0.           0.           0.       
    6.55000n    482.2338m      0.           0.           0.       
    6.56000n    482.2340m      0.           0.           0.       
    6.57000n    482.2342m      0.           0.           0.       
    6.58000n    482.2344m      0.           0.           0.       
    6.59000n    482.2345m      0.           0.           0.       
    6.60000n    482.2347m      0.           0.           0.       
    6.61000n    482.2349m      0.           0.           0.       
    6.62000n    482.2351m      0.           0.           0.       
    6.63000n    482.2353m      0.           0.           0.       
    6.64000n    482.2355m      0.           0.           0.       
    6.65000n    482.2356m      0.           0.           0.       
    6.66000n    482.2358m      0.           0.           0.       
    6.67000n    482.2360m      0.           0.           0.       
    6.68000n    482.2362m      0.           0.           0.       
    6.69000n    482.2364m      0.           0.           0.       
    6.70000n    482.2366m      0.           0.           0.       
    6.71000n    482.2367m      0.           0.           0.       
    6.72000n    482.2369m      0.           0.           0.       
    6.73000n    482.2371m      0.           0.           0.       
    6.74000n    482.2373m      0.           0.           0.       
    6.75000n    482.2375m      0.           0.           0.       
    6.76000n    482.2377m      0.           0.           0.       
    6.77000n    482.2378m      0.           0.           0.       
    6.78000n    482.2380m      0.           0.           0.       
    6.79000n    482.2382m      0.           0.           0.       
    6.80000n    482.2384m      0.           0.           0.       
    6.81000n    482.2386m      0.           0.           0.       
    6.82000n    482.2387m      0.           0.           0.       
    6.83000n    482.2389m      0.           0.           0.       
    6.84000n    482.2391m      0.           0.           0.       
    6.85000n    482.2393m      0.           0.           0.       
    6.86000n    482.2395m      0.           0.           0.       
    6.87000n    482.2397m      0.           0.           0.       
    6.88000n    482.2398m      0.           0.           0.       
    6.89000n    482.2400m      0.           0.           0.       
    6.90000n    482.2402m      0.           0.           0.       
    6.91000n    482.2404m      0.           0.           0.       
    6.92000n    482.2406m      0.           0.           0.       
    6.93000n    482.2408m      0.           0.           0.       
    6.94000n    482.2409m      0.           0.           0.       
    6.95000n    482.2411m      0.           0.           0.       
    6.96000n    482.2413m      0.           0.           0.       
    6.97000n    482.2415m      0.           0.           0.       
    6.98000n    482.2417m      0.           0.           0.       
    6.99000n    482.2419m      0.           0.           0.       
    7.00000n    482.2420m      0.           0.           0.       
    7.01000n    482.2422m      0.           0.           0.       
    7.02000n    482.2424m      0.           0.           0.       
    7.03000n    482.2426m      0.           0.           0.       
    7.04000n    482.2428m      0.           0.           0.       
    7.05000n    482.2430m      0.           0.           0.       
    7.06000n    482.2431m      0.           0.           0.       
    7.07000n    482.2433m      0.           0.           0.       
    7.08000n    482.2435m      0.           0.           0.       
    7.09000n    482.2437m      0.           0.           0.       
    7.10000n    482.2439m      0.           0.           0.       
    7.11000n    482.2440m      0.           0.           0.       
    7.12000n    482.2442m      0.           0.           0.       
    7.13000n    482.2444m      0.           0.           0.       
    7.14000n    482.2446m      0.           0.           0.       
    7.15000n    482.2448m      0.           0.           0.       
    7.16000n    482.2450m      0.           0.           0.       
    7.17000n    482.2451m      0.           0.           0.       
    7.18000n    482.2453m      0.           0.           0.       
    7.19000n    482.2455m      0.           0.           0.       
    7.20000n    482.2457m      0.           0.           0.       
    7.21000n    482.2459m      0.           0.           0.       
    7.22000n    482.2461m      0.           0.           0.       
    7.23000n    482.2462m      0.           0.           0.       
    7.24000n    482.2464m      0.           0.           0.       
    7.25000n    482.2466m      0.           0.           0.       
    7.26000n    482.2468m      0.           0.           0.       
    7.27000n    482.2470m      0.           0.           0.       
    7.28000n    482.2472m      0.           0.           0.       
    7.29000n    482.2473m      0.           0.           0.       
    7.30000n    482.2475m      0.           0.           0.       
    7.31000n    482.2477m      0.           0.           0.       
    7.32000n    482.2479m      0.           0.           0.       
    7.33000n    482.2481m      0.           0.           0.       
    7.34000n    482.2483m      0.           0.           0.       
    7.35000n    482.2484m      0.           0.           0.       
    7.36000n    482.2486m      0.           0.           0.       
    7.37000n    482.2488m      0.           0.           0.       
    7.38000n    482.2490m      0.           0.           0.       
    7.39000n    482.2492m      0.           0.           0.       
    7.40000n    482.2493m      0.           0.           0.       
    7.41000n    482.2495m      0.           0.           0.       
    7.42000n    482.2497m      0.           0.           0.       
    7.43000n    482.2499m      0.           0.           0.       
    7.44000n    482.2501m      0.           0.           0.       
    7.45000n    482.2503m      0.           0.           0.       
    7.46000n    482.2504m      0.           0.           0.       
    7.47000n    482.2506m      0.           0.           0.       
    7.48000n    482.2508m      0.           0.           0.       
    7.49000n    482.2510m      0.           0.           0.       
    7.50000n    558.4451m      0.           1.0000       0.       
    7.51000n    621.8133m      0.           1.0000       0.       
    7.52000n    623.8932m      0.           1.0000       0.       
    7.53000n    623.7803m      0.           1.0000       0.       
    7.54000n    623.8216m      0.           1.0000       0.       
    7.55000n    623.8068m      0.           1.0000       0.       
    7.56000n    623.7921m      0.           1.0000       0.       
    7.57000n    623.7818m      0.           1.0000       0.       
    7.58000n    623.7849m      0.           1.0000       0.       
    7.59000n    623.7879m      0.           1.0000       0.       
    7.60000n    623.7910m      0.           1.0000       0.       
    7.61000n    623.7941m      0.           1.0000       0.       
    7.62000n    623.7971m      0.           1.0000       0.       
    7.63000n    623.8002m      0.           1.0000       0.       
    7.64000n    623.8033m      0.           1.0000       0.       
    7.65000n    623.8063m      0.           1.0000       0.       
    7.66000n    623.8084m      0.           1.0000       0.       
    7.67000n    623.8075m      0.           1.0000       0.       
    7.68000n    623.8066m      0.           1.0000       0.       
    7.69000n    623.8057m      0.           1.0000       0.       
    7.70000n    623.8048m      0.           1.0000       0.       
    7.71000n    623.8039m      0.           1.0000       0.       
    7.72000n    623.8031m      0.           1.0000       0.       
    7.73000n    623.8022m      0.           1.0000       0.       
    7.74000n    623.8013m      0.           1.0000       0.       
    7.75000n    623.8004m      0.           1.0000       0.       
    7.76000n    623.7995m      0.           1.0000       0.       
    7.77000n    623.7986m      0.           1.0000       0.       
    7.78000n    623.7977m      0.           1.0000       0.       
    7.79000n    623.7969m      0.           1.0000       0.       
    7.80000n    623.7960m      0.           1.0000       0.       
    7.81000n    623.7951m      0.           1.0000       0.       
    7.82000n    623.7942m      0.           1.0000       0.       
    7.83000n    623.7933m      0.           1.0000       0.       
    7.84000n    623.7924m      0.           1.0000       0.       
    7.85000n    623.7915m      0.           1.0000       0.       
    7.86000n    623.7907m      0.           1.0000       0.       
    7.87000n    623.7898m      0.           1.0000       0.       
    7.88000n    623.7889m      0.           1.0000       0.       
    7.89000n    623.7880m      0.           1.0000       0.       
    7.90000n    623.7871m      0.           1.0000       0.       
    7.91000n    623.7862m      0.           1.0000       0.       
    7.92000n    623.7853m      0.           1.0000       0.       
    7.93000n    623.7845m      0.           1.0000       0.       
    7.94000n    623.7843m      0.           1.0000       0.       
    7.95000n    623.7846m      0.           1.0000       0.       
    7.96000n    623.7849m      0.           1.0000       0.       
    7.97000n    623.7852m      0.           1.0000       0.       
    7.98000n    623.7855m      0.           1.0000       0.       
    7.99000n    623.7857m      0.           1.0000       0.       
    8.00000n    623.7860m      0.           1.0000       0.       
    8.01000n    623.7863m      0.           1.0000       0.       
    8.02000n    623.7866m      0.           1.0000       0.       
    8.03000n    623.7869m      0.           1.0000       0.       
    8.04000n    623.7871m      0.           1.0000       0.       
    8.05000n    623.7874m      0.           1.0000       0.       
    8.06000n    623.7877m      0.           1.0000       0.       
    8.07000n    623.7880m      0.           1.0000       0.       
    8.08000n    623.7883m      0.           1.0000       0.       
    8.09000n    623.7885m      0.           1.0000       0.       
    8.10000n    623.7888m      0.           1.0000       0.       
    8.11000n    623.7891m      0.           1.0000       0.       
    8.12000n    623.7894m      0.           1.0000       0.       
    8.13000n    623.7897m      0.           1.0000       0.       
    8.14000n    623.7899m      0.           1.0000       0.       
    8.15000n    623.7902m      0.           1.0000       0.       
    8.16000n    623.7905m      0.           1.0000       0.       
    8.17000n    623.7908m      0.           1.0000       0.       
    8.18000n    623.7911m      0.           1.0000       0.       
    8.19000n    623.7913m      0.           1.0000       0.       
    8.20000n    623.7916m      0.           1.0000       0.       
    8.21000n    623.7919m      0.           1.0000       0.       
    8.22000n    623.7922m      0.           1.0000       0.       
    8.23000n    623.7925m      0.           1.0000       0.       
    8.24000n    623.7927m      0.           1.0000       0.       
    8.25000n    623.7930m      0.           1.0000       0.       
    8.26000n    623.7933m      0.           1.0000       0.       
    8.27000n    623.7936m      0.           1.0000       0.       
    8.28000n    623.7939m      0.           1.0000       0.       
    8.29000n    623.7941m      0.           1.0000       0.       
    8.30000n    623.7944m      0.           1.0000       0.       
    8.31000n    623.7947m      0.           1.0000       0.       
    8.32000n    623.7950m      0.           1.0000       0.       
    8.33000n    623.7953m      0.           1.0000       0.       
    8.34000n    623.7955m      0.           1.0000       0.       
    8.35000n    623.7958m      0.           1.0000       0.       
    8.36000n    623.7961m      0.           1.0000       0.       
    8.37000n    623.7964m      0.           1.0000       0.       
    8.38000n    623.7967m      0.           1.0000       0.       
    8.39000n    623.7969m      0.           1.0000       0.       
    8.40000n    623.7972m      0.           1.0000       0.       
    8.41000n    623.7975m      0.           1.0000       0.       
    8.42000n    623.7978m      0.           1.0000       0.       
    8.43000n    623.7981m      0.           1.0000       0.       
    8.44000n    623.7983m      0.           1.0000       0.       
    8.45000n    623.7986m      0.           1.0000       0.       
    8.46000n    623.7989m      0.           1.0000       0.       
    8.47000n    623.7992m      0.           1.0000       0.       
    8.48000n    623.7995m      0.           1.0000       0.       
    8.49000n    623.7997m      0.           1.0000       0.       
    8.50000n    623.8000m      0.           1.0000       0.       
    8.51000n    623.8003m      0.           1.0000       0.       
    8.52000n    623.8006m      0.           1.0000       0.       
    8.53000n    623.8009m      0.           1.0000       0.       
    8.54000n    623.8012m      0.           1.0000       0.       
    8.55000n    623.8014m      0.           1.0000       0.       
    8.56000n    623.8017m      0.           1.0000       0.       
    8.57000n    623.8020m      0.           1.0000       0.       
    8.58000n    623.8023m      0.           1.0000       0.       
    8.59000n    623.8026m      0.           1.0000       0.       
    8.60000n    623.8028m      0.           1.0000       0.       
    8.61000n    623.8031m      0.           1.0000       0.       
    8.62000n    623.8034m      0.           1.0000       0.       
    8.63000n    623.8037m      0.           1.0000       0.       
    8.64000n    623.8040m      0.           1.0000       0.       
    8.65000n    623.8042m      0.           1.0000       0.       
    8.66000n    623.8045m      0.           1.0000       0.       
    8.67000n    623.8048m      0.           1.0000       0.       
    8.68000n    623.8051m      0.           1.0000       0.       
    8.69000n    623.8054m      0.           1.0000       0.       
    8.70000n    623.8056m      0.           1.0000       0.       
    8.71000n    623.8059m      0.           1.0000       0.       
    8.72000n    623.8062m      0.           1.0000       0.       
    8.73000n    623.8065m      0.           1.0000       0.       
    8.74000n    623.8068m      0.           1.0000       0.       
    8.75000n    623.8070m      0.           1.0000       0.       
    8.76000n    623.8073m      0.           1.0000       0.       
    8.77000n    623.8076m      0.           1.0000       0.       
    8.78000n    623.8078m      0.           1.0000       0.       
    8.79000n    623.8077m      0.           1.0000       0.       
    8.80000n    623.8076m      0.           1.0000       0.       
    8.81000n    623.8075m      0.           1.0000       0.       
    8.82000n    623.8074m      0.           1.0000       0.       
    8.83000n    623.8073m      0.           1.0000       0.       
    8.84000n    623.8073m      0.           1.0000       0.       
    8.85000n    623.8072m      0.           1.0000       0.       
    8.86000n    623.8071m      0.           1.0000       0.       
    8.87000n    623.8070m      0.           1.0000       0.       
    8.88000n    623.8069m      0.           1.0000       0.       
    8.89000n    623.8068m      0.           1.0000       0.       
    8.90000n    623.8067m      0.           1.0000       0.       
    8.91000n    623.8066m      0.           1.0000       0.       
    8.92000n    623.8065m      0.           1.0000       0.       
    8.93000n    623.8064m      0.           1.0000       0.       
    8.94000n    623.8064m      0.           1.0000       0.       
    8.95000n    623.8063m      0.           1.0000       0.       
    8.96000n    623.8062m      0.           1.0000       0.       
    8.97000n    623.8061m      0.           1.0000       0.       
    8.98000n    623.8060m      0.           1.0000       0.       
    8.99000n    623.8059m      0.           1.0000       0.       
    9.00000n    623.8058m      0.           1.0000       0.       
    9.01000n    623.8057m      0.           1.0000       0.       
    9.02000n    623.8056m      0.           1.0000       0.       
    9.03000n    623.8056m      0.           1.0000       0.       
    9.04000n    623.8055m      0.           1.0000       0.       
    9.05000n    623.8054m      0.           1.0000       0.       
    9.06000n    623.8053m      0.           1.0000       0.       
    9.07000n    623.8052m      0.           1.0000       0.       
    9.08000n    623.8051m      0.           1.0000       0.       
    9.09000n    623.8050m      0.           1.0000       0.       
    9.10000n    623.8049m      0.           1.0000       0.       
    9.11000n    623.8048m      0.           1.0000       0.       
    9.12000n    623.8047m      0.           1.0000       0.       
    9.13000n    623.8047m      0.           1.0000       0.       
    9.14000n    623.8046m      0.           1.0000       0.       
    9.15000n    623.8045m      0.           1.0000       0.       
    9.16000n    623.8044m      0.           1.0000       0.       
    9.17000n    623.8043m      0.           1.0000       0.       
    9.18000n    623.8042m      0.           1.0000       0.       
    9.19000n    623.8041m      0.           1.0000       0.       
    9.20000n    623.8040m      0.           1.0000       0.       
    9.21000n    623.8039m      0.           1.0000       0.       
    9.22000n    623.8039m      0.           1.0000       0.       
    9.23000n    623.8038m      0.           1.0000       0.       
    9.24000n    623.8037m      0.           1.0000       0.       
    9.25000n    623.8036m      0.           1.0000       0.       
    9.26000n    623.8035m      0.           1.0000       0.       
    9.27000n    623.8034m      0.           1.0000       0.       
    9.28000n    623.8033m      0.           1.0000       0.       
    9.29000n    623.8032m      0.           1.0000       0.       
    9.30000n    623.8031m      0.           1.0000       0.       
    9.31000n    623.8030m      0.           1.0000       0.       
    9.32000n    623.8030m      0.           1.0000       0.       
    9.33000n    623.8029m      0.           1.0000       0.       
    9.34000n    623.8028m      0.           1.0000       0.       
    9.35000n    623.8027m      0.           1.0000       0.       
[...]
  167.29000n    623.7907m      0.           1.0000       0.       
  167.30000n    623.7907m      0.           1.0000       0.       
  167.31000n    623.7907m      0.           1.0000       0.       
  167.32000n    623.7907m      0.           1.0000       0.       
  167.33000n    623.7907m      0.           1.0000       0.       
  167.34000n    623.7907m      0.           1.0000       0.       
  167.35000n    623.7907m      0.           1.0000       0.       
  167.36000n    623.7907m      0.           1.0000       0.       
  167.37000n    623.7907m      0.           1.0000       0.       
  167.38000n    623.7907m      0.           1.0000       0.       
  167.39000n    623.7907m      0.           1.0000       0.       
  167.40000n    623.7907m      0.           1.0000       0.       
  167.41000n    623.7907m      0.           1.0000       0.       
  167.42000n    623.7907m      0.           1.0000       0.       
  167.43000n    623.7907m      0.           1.0000       0.       
  167.44000n    623.7907m      0.           1.0000       0.       
  167.45000n    623.7907m      0.           1.0000       0.       
  167.46000n    623.7907m      0.           1.0000       0.       
  167.47000n    623.7907m      0.           1.0000       0.       
  167.48000n    623.7907m      0.           1.0000       0.       
  167.49000n    623.7907m      0.           1.0000       0.       
  167.50000n    623.7907m      0.           1.0000       0.       
  167.51000n    623.7907m      0.           1.0000       0.       
  167.52000n    623.7907m      0.           1.0000       0.       
  167.53000n    623.7907m      0.           1.0000       0.       
  167.54000n    623.7907m      0.           1.0000       0.       
  167.55000n    623.7907m      0.           1.0000       0.       
  167.56000n    623.7907m      0.           1.0000       0.       
  167.57000n    623.7907m      0.           1.0000       0.       
  167.58000n    623.7907m      0.           1.0000       0.       
  167.59000n    623.7907m      0.           1.0000       0.       
  167.60000n    623.7907m      0.           1.0000       0.       
  167.61000n    623.7907m      0.           1.0000       0.       
  167.62000n    623.7907m      0.           1.0000       0.       
  167.63000n    623.7907m      0.           1.0000       0.       
  167.64000n    623.7907m      0.           1.0000       0.       
  167.65000n    623.7907m      0.           1.0000       0.       
  167.66000n    623.7907m      0.           1.0000       0.       
  167.67000n    623.7907m      0.           1.0000       0.       
  167.68000n    623.7907m      0.           1.0000       0.       
  167.69000n    623.7907m      0.           1.0000       0.       
  167.70000n    623.7907m      0.           1.0000       0.       
  167.71000n    623.7907m      0.           1.0000       0.       
  167.72000n    623.7907m      0.           1.0000       0.       
  167.73000n    623.7907m      0.           1.0000       0.       
  167.74000n    623.7907m      0.           1.0000       0.       
  167.75000n    623.7907m      0.           1.0000       0.       
  167.76000n    623.7907m      0.           1.0000       0.       
  167.77000n    623.7907m      0.           1.0000       0.       
  167.78000n    623.7907m      0.           1.0000       0.       
  167.79000n    623.7907m      0.           1.0000       0.       
  167.80000n    623.7907m      0.           1.0000       0.       
  167.81000n    623.7907m      0.           1.0000       0.       
  167.82000n    623.7907m      0.           1.0000       0.       
  167.83000n    623.7907m      0.           1.0000       0.       
  167.84000n    623.7907m      0.           1.0000       0.       
  167.85000n    623.7907m      0.           1.0000       0.       
  167.86000n    623.7907m      0.           1.0000       0.       
  167.87000n    623.7907m      0.           1.0000       0.       
  167.88000n    623.7907m      0.           1.0000       0.       
  167.89000n    623.7907m      0.           1.0000       0.       
  167.90000n    623.7907m      0.           1.0000       0.       
  167.91000n    623.7907m      0.           1.0000       0.       
  167.92000n    623.7907m      0.           1.0000       0.       
  167.93000n    623.7907m      0.           1.0000       0.       
  167.94000n    623.7907m      0.           1.0000       0.       
  167.95000n    623.7907m      0.           1.0000       0.       
  167.96000n    623.7907m      0.           1.0000       0.       
  167.97000n    623.7907m      0.           1.0000       0.       
  167.98000n    623.7907m      0.           1.0000       0.       
  167.99000n    623.7907m      0.           1.0000       0.       
  168.00000n    623.7907m      0.           1.0000       0.       
  168.01000n    623.7907m      0.           1.0000       0.       
  168.02000n    623.7907m      0.           1.0000       0.       
  168.03000n    623.7907m      0.           1.0000       0.       
  168.04000n    623.7907m      0.           1.0000       0.       
  168.05000n    623.7907m      0.           1.0000       0.       
  168.06000n    623.7907m      0.           1.0000       0.       
  168.07000n    623.7907m      0.           1.0000       0.       
  168.08000n    623.7907m      0.           1.0000       0.       
  168.09000n    623.7907m      0.           1.0000       0.       
  168.10000n    623.7907m      0.           1.0000       0.       
  168.11000n    623.7907m      0.           1.0000       0.       
  168.12000n    623.7907m      0.           1.0000       0.       
  168.13000n    623.7907m      0.           1.0000       0.       
  168.14000n    623.7907m      0.           1.0000       0.       
  168.15000n    623.7907m      0.           1.0000       0.       
  168.16000n    623.7907m      0.           1.0000       0.       
  168.17000n    623.7907m      0.           1.0000       0.       
  168.18000n    623.7907m      0.           1.0000       0.       
  168.19000n    623.7907m      0.           1.0000       0.       
  168.20000n    623.7907m      0.           1.0000       0.       
  168.21000n    623.7907m      0.           1.0000       0.       
  168.22000n    623.7907m      0.           1.0000       0.       
  168.23000n    623.7907m      0.           1.0000       0.       
  168.24000n    623.7907m      0.           1.0000       0.       
  168.25000n    623.7907m      0.           1.0000       0.       
  168.26000n    623.7907m      0.           1.0000       0.       
  168.27000n    623.7907m      0.           1.0000       0.       
  168.28000n    623.7907m      0.           1.0000       0.       
  168.29000n    623.7907m      0.           1.0000       0.       
  168.30000n    623.7907m      0.           1.0000       0.       
  168.31000n    623.7907m      0.           1.0000       0.       
  168.32000n    623.7907m      0.           1.0000       0.       
  168.33000n    623.7907m      0.           1.0000       0.       
  168.34000n    623.7907m      0.           1.0000       0.       
  168.35000n    623.7907m      0.           1.0000       0.       
  168.36000n    623.7907m      0.           1.0000       0.       
  168.37000n    623.7907m      0.           1.0000       0.       
  168.38000n    623.7907m      0.           1.0000       0.       
  168.39000n    623.7907m      0.           1.0000       0.       
  168.40000n    623.7907m      0.           1.0000       0.       
  168.41000n    623.7907m      0.           1.0000       0.       
  168.42000n    623.7907m      0.           1.0000       0.       
  168.43000n    623.7907m      0.           1.0000       0.       
  168.44000n    623.7907m      0.           1.0000       0.       
  168.45000n    623.7907m      0.           1.0000       0.       
  168.46000n    623.7907m      0.           1.0000       0.       
  168.47000n    623.7907m      0.           1.0000       0.       
  168.48000n    623.7907m      0.           1.0000       0.       
  168.49000n    623.7907m      0.           1.0000       0.       
  168.50000n    623.7907m      0.           1.0000       0.       
  168.51000n    623.7907m      0.           1.0000       0.       
  168.52000n    623.7907m      0.           1.0000       0.       
  168.53000n    623.7907m      0.           1.0000       0.       
  168.54000n    623.7907m      0.           1.0000       0.       
  168.55000n    623.7907m      0.           1.0000       0.       
  168.56000n    623.7907m      0.           1.0000       0.       
  168.57000n    623.7907m      0.           1.0000       0.       
  168.58000n    623.7907m      0.           1.0000       0.       
  168.59000n    623.7907m      0.           1.0000       0.       
  168.60000n    623.7907m      0.           1.0000       0.       
  168.61000n    623.7907m      0.           1.0000       0.       
  168.62000n    623.7907m      0.           1.0000       0.       
  168.63000n    623.7907m      0.           1.0000       0.       
  168.64000n    623.7907m      0.           1.0000       0.       
  168.65000n    623.7907m      0.           1.0000       0.       
  168.66000n    623.7907m      0.           1.0000       0.       
  168.67000n    623.7907m      0.           1.0000       0.       
  168.68000n    623.7907m      0.           1.0000       0.       
  168.69000n    623.7907m      0.           1.0000       0.       
  168.70000n    623.7907m      0.           1.0000       0.       
  168.71000n    623.7907m      0.           1.0000       0.       
  168.72000n    623.7907m      0.           1.0000       0.       
  168.73000n    623.7907m      0.           1.0000       0.       
  168.74000n    623.7907m      0.           1.0000       0.       
  168.75000n    623.7907m      0.           1.0000       0.       
  168.76000n    623.7907m      0.           1.0000       0.       
  168.77000n    623.7907m      0.           1.0000       0.       
  168.78000n    623.7907m      0.           1.0000       0.       
  168.79000n    623.7907m      0.           1.0000       0.       
  168.80000n    623.7907m      0.           1.0000       0.       
  168.81000n    623.7907m      0.           1.0000       0.       
  168.82000n    623.7907m      0.           1.0000       0.       
  168.83000n    623.7907m      0.           1.0000       0.       
  168.84000n    623.7907m      0.           1.0000       0.       
  168.85000n    623.7907m      0.           1.0000       0.       
  168.86000n    623.7907m      0.           1.0000       0.       
  168.87000n    623.7907m      0.           1.0000       0.       
  168.88000n    623.7907m      0.           1.0000       0.       
  168.89000n    623.7907m      0.           1.0000       0.       
  168.90000n    623.7907m      0.           1.0000       0.       
  168.91000n    623.7907m      0.           1.0000       0.       
  168.92000n    623.7907m      0.           1.0000       0.       
  168.93000n    623.7907m      0.           1.0000       0.       
  168.94000n    623.7907m      0.           1.0000       0.       
  168.95000n    623.7907m      0.           1.0000       0.       
  168.96000n    623.7907m      0.           1.0000       0.       
  168.97000n    623.7907m      0.           1.0000       0.       
  168.98000n    623.7907m      0.           1.0000       0.       
  168.99000n    623.7907m      0.           1.0000       0.       
  169.00000n    623.7907m      0.           1.0000       0.       
  169.01000n    623.7907m      0.           1.0000       0.       
  169.02000n    623.7907m      0.           1.0000       0.       
  169.03000n    623.7907m      0.           1.0000       0.       
  169.04000n    623.7907m      0.           1.0000       0.       
  169.05000n    623.7907m      0.           1.0000       0.       
  169.06000n    623.7907m      0.           1.0000       0.       
  169.07000n    623.7907m      0.           1.0000       0.       
  169.08000n    623.7907m      0.           1.0000       0.       
  169.09000n    623.7907m      0.           1.0000       0.       
  169.10000n    623.7907m      0.           1.0000       0.       
  169.11000n    623.7907m      0.           1.0000       0.       
  169.12000n    623.7907m      0.           1.0000       0.       
  169.13000n    623.7907m      0.           1.0000       0.       
  169.14000n    623.7907m      0.           1.0000       0.       
  169.15000n    623.7907m      0.           1.0000       0.       
  169.16000n    623.7907m      0.           1.0000       0.       
  169.17000n    623.7907m      0.           1.0000       0.       
  169.18000n    623.7907m      0.           1.0000       0.       
  169.19000n    623.7907m      0.           1.0000       0.       
  169.20000n    623.7907m      0.           1.0000       0.       
  169.21000n    623.7907m      0.           1.0000       0.       
  169.22000n    623.7907m      0.           1.0000       0.       
  169.23000n    623.7907m      0.           1.0000       0.       
  169.24000n    623.7907m      0.           1.0000       0.       
  169.25000n    623.7907m      0.           1.0000       0.       
  169.26000n    623.7907m      0.           1.0000       0.       
  169.27000n    623.7907m      0.           1.0000       0.       
  169.28000n    623.7907m      0.           1.0000       0.       
  169.29000n    623.7907m      0.           1.0000       0.       
  169.30000n    623.7907m      0.           1.0000       0.       
  169.31000n    623.7907m      0.           1.0000       0.       
  169.32000n    623.7907m      0.           1.0000       0.       
  169.33000n    623.7907m      0.           1.0000       0.       
  169.34000n    623.7907m      0.           1.0000       0.       
  169.35000n    623.7907m      0.           1.0000       0.       
  169.36000n    623.7907m      0.           1.0000       0.       
  169.37000n    623.7907m      0.           1.0000       0.       
  169.38000n    623.7907m      0.           1.0000       0.       
  169.39000n    623.7907m      0.           1.0000       0.       
  169.40000n    623.7907m      0.           1.0000       0.       
  169.41000n    623.7907m      0.           1.0000       0.       
  169.42000n    623.7907m      0.           1.0000       0.       
  169.43000n    623.7907m      0.           1.0000       0.       
  169.44000n    623.7907m      0.           1.0000       0.       
  169.45000n    623.7907m      0.           1.0000       0.       
  169.46000n    623.7907m      0.           1.0000       0.       
  169.47000n    623.7907m      0.           1.0000       0.       
  169.48000n    623.7907m      0.           1.0000       0.       
  169.49000n    623.7907m      0.           1.0000       0.       
  169.50000n    623.7907m      0.           1.0000       0.       
  169.51000n    623.7907m      0.           1.0000       0.       
  169.52000n    623.7907m      0.           1.0000       0.       
  169.53000n    623.7907m      0.           1.0000       0.       
  169.54000n    623.7907m      0.           1.0000       0.       
  169.55000n    623.7907m      0.           1.0000       0.       
  169.56000n    623.7907m      0.           1.0000       0.       
  169.57000n    623.7907m      0.           1.0000       0.       
  169.58000n    623.7907m      0.           1.0000       0.       
  169.59000n    623.7907m      0.           1.0000       0.       
  169.60000n    623.7907m      0.           1.0000       0.       
  169.61000n    623.7907m      0.           1.0000       0.       
  169.62000n    623.7907m      0.           1.0000       0.       
  169.63000n    623.7907m      0.           1.0000       0.       
  169.64000n    623.7907m      0.           1.0000       0.       
  169.65000n    623.7907m      0.           1.0000       0.       
  169.66000n    623.7907m      0.           1.0000       0.       
  169.67000n    623.7907m      0.           1.0000       0.       
  169.68000n    623.7907m      0.           1.0000       0.       
  169.69000n    623.7907m      0.           1.0000       0.       
  169.70000n    623.7907m      0.           1.0000       0.       
  169.71000n    623.7907m      0.           1.0000       0.       
  169.72000n    623.7907m      0.           1.0000       0.       
  169.73000n    623.7907m      0.           1.0000       0.       
  169.74000n    623.7907m      0.           1.0000       0.       
  169.75000n    623.7907m      0.           1.0000       0.       
  169.76000n    623.7907m      0.           1.0000       0.       
  169.77000n    623.7907m      0.           1.0000       0.       
  169.78000n    623.7907m      0.           1.0000       0.       
  169.79000n    623.7907m      0.           1.0000       0.       
  169.80000n    623.7907m      0.           1.0000       0.       
  169.81000n    623.7907m      0.           1.0000       0.       
  169.82000n    623.7907m      0.           1.0000       0.       
  169.83000n    623.7907m      0.           1.0000       0.       
  169.84000n    623.7907m      0.           1.0000       0.       
  169.85000n    623.7907m      0.           1.0000       0.       
  169.86000n    623.7907m      0.           1.0000       0.       
  169.87000n    623.7907m      0.           1.0000       0.       
  169.88000n    623.7907m      0.           1.0000       0.       
  169.89000n    623.7907m      0.           1.0000       0.       
  169.90000n    623.7907m      0.           1.0000       0.       
  169.91000n    623.7907m      0.           1.0000       0.       
  169.92000n    623.7907m      0.           1.0000       0.       
  169.93000n    623.7907m      0.           1.0000       0.       
  169.94000n    623.7907m      0.           1.0000       0.       
  169.95000n    623.7907m      0.           1.0000       0.       
  169.96000n    623.7907m      0.           1.0000       0.       
  169.97000n    623.7907m      0.           1.0000       0.       
  169.98000n    623.7907m      0.           1.0000       0.       
  169.99000n    623.7907m      0.           1.0000       0.       
  170.00000n    623.7907m      0.           1.0000       0.       
y

          ***** job concluded
1****** HSPICE -- D-2010.03-SP1 32-BIT (May 26 2010) winnt ******               
 ******  
 first line of the netlist must be blank.

  ******  job statistics summary tnom=  25.000 temp=  25.000 *****

  ******  HSPICE Threads Information  ******

  Command Line Threads Count                  :     1
  Available CPU Count                         :     4
  Actual Model Evaluation(Load) Threads Count :     1
  Actual Solver Threads Count                 :     1


  ******  Circuit Statistics  ******
  # nodes       =      54 # elements   =      15
  # resistors   =       0 # capacitors =       0 # inductors   =       0
  # mutual_inds =       0 # vccs       =       0 # vcvs        =       0
  # cccs        =       0 # ccvs       =       0 # volt_srcs   =       4
  # curr_srcs   =       0 # diodes     =       0 # bjts        =       0
  # jfets       =       0 # mosfets    =      11 # U elements  =       0
  # T elements  =       0 # W elements =       0 # B elements  =       0
  # S elements  =       0 # P elements =       0 # va device   =       0


  ******  Runtime Statistics (seconds)  ******

  analysis           time    # points   tot. iter  conv.iter
  op point           0.01           1           7
  transient          0.24       17001        2935        1059 rev=        56
  readin             0.07
  errchk             0.01
  setup              0.02
  output             0.04


           total memory used          335  kbytes
           total cpu time            0.42 seconds
           total elapsed time        0.48 seconds
           job started at     14:49:48 12/31/2014
           job ended   at     14:49:48 12/31/2014


  lic: Release hspice token(s) 
