 ****** HSPICE -- D-2010.03-SP1 32-BIT (May 26 2010) winnt ******               
  Copyright (C) 2010 Synopsys, Inc. All Rights Reserved.                        
  Unpublished-rights reserved under US copyright laws.
  This program is protected by law and is subject to the 
  terms and conditions of the license agreement from Synopsys.
  Use of this program is your acceptance to be bound by the 
  license agreement. HSPICE is the trademark of Synopsys, Inc.
  Input File: d:\digital electronic\projects\ca_2\average_dynamic_power_temp_0\f
  lic:  
  lic: FLEXlm: v8.5b 
  lic: USER:   HP                   HOSTNAME: ProBook 
  lic: HOSTID: "00090faa0001 56db30007c95 16db30007c95 a4db30007c95 a45d36cb5ab9
  
  lic: Using FLEXlm license file: 
  lic: 27000@elena 
  lic: Checkout 1 hspice 
  lic: License/Maintenance for hspice will expire on 31-dec-2020/2007.9 
  lic: NODE LOCKED license on hostid "00090faa0001 56db30007c95 16db30007c95 a4d
 b
  lic:   
 Init: read install configuration file: C:\synopsys\Hspice_D-2010.03-SP1\meta.cfg
1****** HSPICE -- D-2010.03-SP1 32-BIT (May 26 2010) winnt ******               
 ******  
 first line of the netlist must be blank.

  ******  circuit name directory
 circuit number to circuit name directory
   number circuitname                     definition         multiplier
        0 main circuit
        1 x_cout.                         inverter           1.00 
        2 x_sum.                          inverter           1.00 
  **info** (d:\digital electronic\projects\ca_2\average_dynamic_power_temp_0\full_adder_temp_0.sp:79) DC voltage reset to initial transient source value              in source        0:vina                new dc=  0.0000D+00
 ***************************************************************************
 ***        model parameters  model name:   0:pmos.6   model type:pmos   ***
 ***************************************************************************

   *** general parameters ***
    deriv=   0.           

   ***  level 49  model parameters  ***

       hspver=    2006.03               level=         49         
      version=        3.1            paramchk=          0         
       apwarn=          1                lite=          0         
       vgslim=          0             binUnit=          2         
       capMod=          0               xpart=          1         
       mobMod=          1              nqsMod=          0         
       stiMod=          0                 elm=          5         
     sfvtflag=          0                 tox=  4.08e-009 meter   
           xj=   1.7e-007 meter       binflag=          0         
         lmin=   1.8e-007 meter          lmax=     5e-007 meter   
         wmin=   1.3e-006 meter          wmax=  1.01e-005 meter   
         lref=          0 meter          wref=          0 meter   
         lint=   1.5e-008 meter          wint=   1.5e-008 meter   
        lmult=          1               wmult=          1         
           ll=          0                 lln=          1         
           lw=          0                 lwn=          1         
          lwl=          0                  wl=          0         
          wln=          1                  ww=          0         
          wwn=          1                 wwl=          0         
          dwg=          0 m/V             dwb=          0 m/V^1/2 
           xl=    -2e-008                  xw=          0         
           a0=    1.27343                 ags=       0.02 V^-1    
           b0=          0 meter            b1=          0 meter   
         keta=  0.0150006 V^-1           voff=  -0.130818 V       
        ngate=          0 cm^-3           vbx=          0 V       
          vbm=         -3 V                xt=  1.55e-007 meter   
         vth0=  -0.449372 V               nch=   3.9e+017 cm^-3   
         nsub=     6e+016 cm^-3           nlx=          0 meter   
       gamma1=          0 V^-1/2       gamma2=          0 V^-1/2  
           k1=   0.517892 V^1/2            k2=  0.0428098         
           k3=          0                 k3b=          0 V^-1    
           w0=          0 meter          dvt0=          0         
         dvt1=          0                dvt2=          0 V^-1    
        dvt0w=          0 meter^-1      dvt1w=          0 meter^-1
        dvt2w=          0 V^-1           dsub=          0         
         eta0=-0.00046875                etab= 0.00113675 V^-1    
           u0=  0.0098319 m^2/V/sec         ua=9.4993e-010 m/V     
           ub=4.95858e-019 (m/V)^2          uc=-1.5879e-010 V^-1    
         vsat=     130813 m/sec            a1=          0 v^-1    
           a2=        0.4               delta=       0.01 V       
         rdsw=        530 ohm-um         prwg=          0 V^-1    
         prwb=          0 V^-1/2           wr=          1         
         pclm=    0.91154             pdiblc1=     1e-006         
      pdiblc2= 0.00796875             pdiblcb=       0.01 V^-1    
       pscbe1=   3.5e+008 V/m          pscbe2=     5e-007 V/m     
        drout=          0                pvag=          0         
      nfactor=          1                cdsc=          0 f/m^2   
        cdscb=          0 f/V/m^2       cdscd=          0 f/V/m^2 
          cit=-6.28086e-005 f/m^2        alpha0=8.93496e-007 m/V     
        beta0=    22.6783 V               dlc=     2e-009 meter   
          dwc=   1.5e-008 meter           clc=     1e-007 meter   
          cle=        0.6                cgso=  3.28e-010 f/m     
         cgdo=  3.28e-010 f/m            cgbo=2.53907e-010 f/m     
         cgsl=          0 f/m            cgdl=          0 f/m     
       ckappa=        0.6                  cf=          0 f/m     
      vfbflag=          1               vfbcv=           Vfb      
         tnom=     298.15 K               kt1=   -0.23689 V       
         kt1l=          0                 kt2=   -0.02568         
          ute=  -0.721369                 ua1= 1.224e-009 m/V     
          ub1=-1.35253e-018 (m/V)^2         uc1=7.19149e-011 m/V^2   
           at=      10000 m/s             prt=          0         
          using Hspice noise model           nlev=          3         
           af=      1.252                  kf= 9.267e-024         
       gdsnoi=-1.23457e-029         
          using Berkeley diodes          using ACM 
          acm=        12                 hdif=    2e-007 meter    
         ldif=    9e-008 meter             js= 4.92e-006 amp/m^2  
          jsw=    9e-010 amp/m            xti=         3          
           nj=         1                   cj=  0.001121 f/m^2    
           mj=    0.4476                   pb=  0.895226 V        
         cjsw=2.481e-010 f/m             mjsw=  0.368362          
          php (not used)                  pbsw=  0.895226 V        
       cjgate (not used)                 cjswg=4.221e-010 f/m      
        mjswg=  0.368362                pbswg=  0.895226 V        
          la0=3.36969e-009               lketa=-5.83136e-010         
        lvoff=1.55427e-010               lvth0=-8.06576e-009         
          lk1=1.88712e-008                 lk2=-6.75856e-009         
        leta0=2.55938e-010               letab=-5.56539e-010         
          lu0=-1.29165e-010                 lua=-1.785e-016         
          lub=1.37311e-025                 luc=1.95859e-017         
        lvsat=-0.000365624               lpclm=3.9807e-008         
     lpdiblc2=9.14062e-010                lcit=1.18189e-010         
         lkt1=-2.46349e-009                lkt2=-7.62232e-011         
         lute=5.38701e-010                lub1=2.54921e-026         
         luc1=-7.86928e-018                 wa0=-5.00174e-007         
        wketa=8.66115e-009               wvoff=5.51816e-009         
        wvth0=1.06796e-008                 wk1=1.44513e-007         
          wk2=-5.28371e-008               wetab=-5.90396e-010         
          wu0=-2.92769e-009                 wua=-7.67988e-016         
          wub=4.3796e-025                 wuc=2.92279e-017         
        wpclm=-1.31009e-008                wcit=2.21978e-010         
         wkt1=2.01412e-008                wkt2=8.08905e-009         
         wute=1.23065e-007                wub1=-2.57544e-025         
         wuc1=-4.96378e-017                 pa0=1.27884e-013         
        pketa=-2.4688e-015               pvoff=-1.90571e-015         
        pvth0=-1.7426e-015                 pk1=-2.05709e-014         
          pk2=8.79696e-015               petab=2.65679e-016         
          pu0=3.01257e-016                 pua=1.84541e-022         
          pub=-1.52856e-031                 puc=-1.08196e-023         
        ppclm=5.8954e-015                pcit=-8.55422e-017         
         pkt1=-2.00901e-015                pkt2=-1.55865e-015         
         pute=1.05946e-014                pub1=3.33784e-032         
         puc1=1.01945e-023         
 ***************************************************************************
 ***        model parameters  model name:   0:nmos.12  model type:nmos   ***
 ***************************************************************************

   *** general parameters ***
    deriv=   0.           

   ***  level 49  model parameters  ***

       hspver=    2006.03               level=         49         
      version=        3.1            paramchk=          0         
       apwarn=          1                lite=          0         
       vgslim=          0             binUnit=          2         
       capMod=          0               xpart=          1         
       mobMod=          1              nqsMod=          0         
       stiMod=          0                 elm=          5         
     sfvtflag=          0                 tox=  4.08e-009 meter   
           xj=   1.6e-007 meter       binflag=          0         
         lmin=   1.8e-007 meter          lmax=     5e-007 meter   
         wmin=   2.2e-007 meter          wmax=     6e-007 meter   
         lref=          0 meter          wref=          0 meter   
         lint=     1e-008 meter          wint=     1e-008 meter   
        lmult=          1               wmult=          1         
           ll=          0                 lln=          1         
           lw=          0                 lwn=          1         
          lwl=          0                  wl=          0         
          wln=          1                  ww=          0         
          wwn=          1                 wwl=          0         
          dwg=          0 m/V             dwb=          0 m/V^1/2 
           xl=    -2e-008                  xw=          0         
           a0=   0.309139                 ags=  0.0533449 V^-1    
           b0=          0 meter            b1=          0 meter   
         keta= -0.0298329 V^-1           voff=  -0.118294 V       
        ngate=          0 cm^-3           vbx=          0 V       
          vbm=         -3 V                xt=  1.55e-007 meter   
         vth0=   0.473666 V               nch=   3.9e+017 cm^-3   
         nsub=     6e+016 cm^-3           nlx=          0 meter   
       gamma1=          0 V^-1/2       gamma2=          0 V^-1/2  
           k1=   0.491632 V^1/2            k2=  0.0241211         
           k3=          0                 k3b=          0 V^-1    
           w0=          0 meter          dvt0=          0         
         dvt1=          0                dvt2=          0 V^-1    
        dvt0w=          0 meter^-1      dvt1w=          0 meter^-1
        dvt2w=          0 V^-1           dsub=          0         
         eta0=-0.000262195                etab= 0.00134878 V^-1    
           u0=  0.0372746 m^2/V/sec         ua=-6.55196e-010 m/V     
           ub=2.11511e-018 (m/V)^2          uc=1.21054e-010 V^-1    
         vsat=    85478.7 m/sec            a1=          0 v^-1    
           a2=       0.99               delta=       0.01 V       
         rdsw=        170 ohm-um         prwg=          0 V^-1    
         prwb=          0 V^-1/2           wr=          1         
         pclm=    1.15192             pdiblc1=     1e-006         
      pdiblc2=-0.00702563             pdiblcb=       0.01 V^-1    
       pscbe1=     4e+008 V/m          pscbe2=     1e-006 V/m     
        drout=          0                pvag=          0         
      nfactor=          1                cdsc=          0 f/m^2   
        cdscb=          0 f/V/m^2       cdscd=          0 f/V/m^2 
          cit=0.000291019 f/m^2        alpha0=6.27411e-008 m/V     
        beta0=    11.5926 V               dlc=     3e-009 meter   
          dwc=     1e-008 meter           clc=     1e-007 meter   
          cle=        0.6                cgso= 3.665e-010 f/m     
         cgdo= 3.665e-010 f/m            cgbo=1.69271e-010 f/m     
         cgsl=          0 f/m            cgdl=          0 f/m     
       ckappa=        0.6                  cf=          0 f/m     
      vfbflag=          1               vfbcv=           Vfb      
         tnom=     298.15 K               kt1=  -0.195646 V       
         kt1l=          0                 kt2=  -0.039081         
          ute=   -1.94466                 ua1= 1.224e-009 m/V     
          ub1=-3.08156e-018 (m/V)^2         uc1=-2.39274e-010 m/V^2   
           at=      20000 m/s             prt=          0         
          using Hspice noise model           nlev=          3         
           af=     0.8256                  kf= 9.326e-025         
       gdsnoi=-1.23457e-029         
          using Berkeley diodes          using ACM 
          acm=        12                 hdif=    2e-007 meter    
         ldif=    9e-008 meter             js= 8.38e-006 amp/m^2  
          jsw=  1.6e-011 amp/m            xti=         3          
           nj=         1                   cj=0.00100027 f/m^2    
           mj=  0.359526                   pb=  0.688268 V        
         cjsw=2.04055e-010 f/m             mjsw=  0.200388          
          php (not used)                  pbsw=  0.688268 V        
       cjgate (not used)                 cjswg=3.34055e-010 f/m      
        mjswg=   0.43879                pbswg=  0.688268 V        
          la0=1.06621e-007                lags=-1.53387e-008         
        lketa=4.61416e-010               lvoff=-3.96108e-009         
        lvth0=5.11682e-009                 lk1=3.30818e-008         
          lk2=-1.52713e-008               leta0=1.6661e-010         
        letab=-6.66439e-010                 lu0=1.59926e-009         
          lua=2.34123e-017                 lub=-8.56068e-026         
          luc=-1.54502e-017               lvsat=-0.00020462         
        lpclm=7.12344e-008            lpdiblc2=5.54738e-009         
         lcit=9.61312e-011                lkt1=-2.85002e-011         
         lkt2=1.8665e-009                lute=4.8145e-008         
         lub1=3.21842e-025                luc1= 5.554e-017         
          wa0=2.62937e-007                wags=-1.00035e-008         
        wketa=4.19031e-009               wvoff=-3.62118e-010         
        wvth0=-2.54604e-009                 wk1=-1.81486e-008         
          wk2=4.13368e-009                 wu0=1.17336e-009         
          wua=4.27813e-017                 wub=-1.03025e-025         
          wuc=-2.88731e-017               wvsat=0.000535754         
        wpclm=1.12421e-007            wpdiblc2=7.8584e-010         
         wcit=-2.50083e-012                wkt1=-1.85501e-008         
         wkt2=2.04501e-009                wute=1.32891e-008         
         wub1=1.45513e-025                wuc1=4.98122e-017         
          pa0=-8.2896e-014                pags=4.6016e-015         
        pketa=-1.78076e-016               pvoff=-4.51263e-016         
        pvth0=7.78622e-016                 pk1=4.16607e-015         
          pk2=-2.21999e-015                 pu0=-1.56466e-017         
          pua=-2.17339e-023                 pub=2.32296e-032         
          puc=3.11796e-024               pvsat=1.1309e-011         
        ppclm=-1.62572e-016            ppdiblc2=-1.03731e-016         
         pcit=1.1504e-018                pkt1=3.11964e-015         
         pkt2=-7.72415e-017                pute=-6.113e-015         
         pub1=-2.88913e-032                puc1=-1.05423e-023         
 ***************************************************************************
 ***        model parameters  model name:   0:pmos.12  model type:pmos   ***
 ***************************************************************************

   *** general parameters ***
    deriv=   0.           

   ***  level 49  model parameters  ***

       hspver=    2006.03               level=         49         
      version=        3.1            paramchk=          0         
       apwarn=          1                lite=          0         
       vgslim=          0             binUnit=          2         
       capMod=          0               xpart=          1         
       mobMod=          1              nqsMod=          0         
       stiMod=          0                 elm=          5         
     sfvtflag=          0                 tox=  4.08e-009 meter   
           xj=   1.7e-007 meter       binflag=          0         
         lmin=   1.8e-007 meter          lmax=     5e-007 meter   
         wmin=   2.2e-007 meter          wmax=     6e-007 meter   
         lref=          0 meter          wref=          0 meter   
         lint=   1.5e-008 meter          wint=   1.5e-008 meter   
        lmult=          1               wmult=          1         
           ll=          0                 lln=          1         
           lw=          0                 lwn=          1         
          lwl=          0                  wl=          0         
          wln=          1                  ww=          0         
          wwn=          1                 wwl=          0         
          dwg=          0 m/V             dwb=          0 m/V^1/2 
           xl=    -2e-008                  xw=          0         
           a0=    1.42473                 ags=    0.03625 V^-1    
           b0=          0 meter            b1=          0 meter   
         keta=   0.031312 V^-1           voff=  -0.128164 V       
        ngate=          0 cm^-3           vbx=          0 V       
          vbm=         -3 V                xt=  1.55e-007 meter   
         vth0=  -0.463924 V               nch=   3.9e+017 cm^-3   
         nsub=     6e+016 cm^-3           nlx=          0 meter   
       gamma1=          0 V^-1/2       gamma2=          0 V^-1/2  
           k1=   0.466995 V^1/2            k2=  0.0588639         
           k3=          0                 k3b=          0 V^-1    
           w0=          0 meter          dvt0=          0         
         dvt1=          0                dvt2=          0 V^-1    
        dvt0w=          0 meter^-1      dvt1w=          0 meter^-1
        dvt2w=          0 V^-1           dsub=          0         
         eta0=-0.00046875                etab=0.000671875 V^-1    
           u0=  0.0106032 m^2/V/sec         ua=1.95012e-009 m/V     
           ub=-4.60397e-019 (m/V)^2          uc=-2.79142e-010 V^-1    
         vsat=     130813 m/sec            a1=          0 v^-1    
           a2=        0.4               delta=       0.01 V       
         rdsw=        530 ohm-um         prwg=          0 V^-1    
         prwb=          0 V^-1/2           wr=          1         
         pclm=   0.965731             pdiblc1=     1e-006         
      pdiblc2=  0.0059375             pdiblcb=       0.01 V^-1    
       pscbe1=   3.5e+008 V/m          pscbe2=     5e-007 V/m     
        drout=          0                pvag=          0         
      nfactor=          1                cdsc=          0 f/m^2   
        cdscb=          0 f/V/m^2       cdscd=          0 f/V/m^2 
          cit=8.53438e-005 f/m^2        alpha0=8.93496e-007 m/V     
        beta0=    22.6783 V               dlc=     2e-009 meter   
          dwc=   1.5e-008 meter           clc=     1e-007 meter   
          cle=        0.6                cgso=  3.28e-010 f/m     
         cgdo=  3.28e-010 f/m            cgbo=2.53907e-010 f/m     
         cgsl=          0 f/m            cgdl=          0 f/m     
       ckappa=        0.6                  cf=          0 f/m     
      vfbflag=          1               vfbcv=           Vfb      
         tnom=     298.15 K               kt1=  -0.213807 V       
         kt1l=          0                 kt2= -0.0350727         
          ute=  -0.599398                 ua1= 1.224e-009 m/V     
          ub1=-1.44385e-018 (m/V)^2         uc1=1.97007e-010 m/V^2   
           at=      10000 m/s             prt=          0         
          using Hspice noise model           nlev=          3         
           af=      1.252                  kf= 9.267e-024         
       gdsnoi=-1.23457e-029         
          using Berkeley diodes          using ACM 
          acm=        12                 hdif=    2e-007 meter    
         ldif=    9e-008 meter             js= 4.92e-006 amp/m^2  
          jsw=    9e-010 amp/m            xti=         3          
           nj=         1                   cj=  0.001121 f/m^2    
           mj=    0.4476                   pb=  0.895226 V        
         cjsw=2.481e-010 f/m             mjsw=  0.368362          
          php (not used)                  pbsw=  0.895226 V        
       cjgate (not used)                 cjswg=4.221e-010 f/m      
        mjswg=  0.368362                pbswg=  0.895226 V        
          la0=6.05288e-009                lags=-7.3125e-009         
        lketa=-5.16184e-009               lvoff=-5.91609e-009         
        lvth0=5.38107e-010                 lk1=1.45905e-008         
          lk2=-3.556e-009               leta0=2.55938e-010         
        letab=-3.47344e-010                 lu0=-3.30242e-010         
          lua=-2.51766e-016                 lub=2.48836e-025         
          luc=3.17066e-017               lvsat=-0.000365626         
        lpclm=1.54212e-008            lpdiblc2=1.82813e-009         
         lcit=5.42953e-011                lkt1=-2.11408e-009         
         lkt2=2.67095e-009                lute= -5.86e-010         
         lub1=-1.13609e-026                luc1=-2.35622e-017         
          wa0=3.5728e-008               wketa=-1.25751e-009         
        wvoff=2.48258e-009               wvth0=8.41494e-009         
          wk1=8.05894e-009                 wk2=-3.77675e-009         
          wu0=-8.74775e-010                 wua=-4.01758e-016         
          wub=1.33977e-025                 wuc=5.52361e-018         
        wpclm=4.02174e-009                wkt1=-3.18668e-009         
         wkt2=3.65278e-009                wute=-4.50547e-008         
         wub1=-2.01983e-027                wuc1=-3.10897e-017         
          pa0=-5.26953e-015               pketa=6.47119e-016         
        pvoff=1.26195e-015               pvth0=-2.69537e-015         
          pk1=3.57783e-015                 pk2=-2.00502e-015         
          pu0=1.17808e-016                 pua=5.47148e-023         
          pub=-6.52837e-032                 puc=-7.6012e-024         
        ppclm=-1.80978e-015                pkt1=-8.46899e-016         
         pkt2=-9.23643e-016                pute=5.17958e-015         
         pub1=1.65815e-032                puc1=5.34039e-024         
 

 
      
 **info** set option symb=1 internally to help for convergence.
 *****************************************************************
 ******  option summary
 ******
 runlvl  = 3         bypass  = 2         
  Opening plot unit= 79
 file=d:\digital electronic\projects\ca_2\average_dynamic_power_temp_0\full_add

1****** HSPICE -- D-2010.03-SP1 32-BIT (May 26 2010) winnt ******               
 ******  
 first line of the netlist must be blank.

  ******  operating point information tnom=  25.000 temp=   0.000 *****
 ***** operating point status is all       simulation time is     0.     
    node    =voltage      node    =voltage      node    =voltage

 +0:a       =   0.      0:b       =   0.      0:cin     =   0.     
 +0:cout    =   7.4818n 0:cout_bar=   1.8000  0:drain_n_= 107.6877m
 +0:drain_n_= 107.6882m 0:drain_n_=   1.4439  0:drain_n_=  10.2696n
 +0:drain_p_=   1.8000  0:drain_p_=   1.8000  0:drain_p_=   1.8000 
 +0:drain_p_=   1.8000  0:sum     =   7.4818n 0:sum_bar =   1.8000 
 +0:vdd     =   1.8000 


 ****  voltage sources

 subckt                                              
 element  0:v1       0:vina     0:vinb     0:vinc    
  volts      1.8000     0.         0.         0.     
  current  -37.8530p    0.         0.         0.     
  power     68.1354p    0.         0.         0.     

     total voltage source power dissipation=   68.1354p       watts




 **** mosfets


 subckt                                                                    
 element  0:m_p11    0:m_p12    0:m_p13    0:m_p14    0:m_p1     0:m_p2    
 model    0:pmos.6   0:pmos.6   0:pmos.6   0:pmos.6   0:pmos.6   0:pmos.6  
 region       Linear     Linear     Linear     Cutoff     Linear     Linear
  id        -3.5358p   -3.5357p  -22.9531p -4.834e-19   68.2620a  -22.9534p
  ibs      5.578e-27  5.577e-27  3.621e-26    0.       9.591e-24  6.229e-23
  ibd      9.585e-24  9.585e-24  6.222e-23  1.245e-22  9.590e-24  1.245e-22
  vgs       -1.8000    -1.8000    -1.8000   -13.2655n   -1.8000    -1.8000 
  vds       -6.6325n   -6.6324n  -43.0558n  -86.1120n  127.8977f  -43.0563n
  vbs        0.         0.         0.         0.         6.6325n   43.0558n
  vth     -534.6764m -534.6764m -534.6764m -534.6764m -534.6764m -534.6764m
  vdsat   -698.6848m -698.6848m -698.6848m  -37.2701m -698.6848m -698.6848m
  vod       -1.2653    -1.2653    -1.2653   534.6763m   -1.2653    -1.2653 
  beta     550.2268u  550.2268u  550.2268u  690.4324u  550.2268u  550.2268u
  gam eff  648.0477m  648.0477m  648.0477m  648.0477m  648.0477m  648.0477m
  gm         1.5933p    1.5933p   10.3434p   15.9632a   30.7609a   10.3435p
  gds      533.7237u  533.7237u  533.7237u    5.6134p  533.7237u  533.7236u
  gmb        1.0281p    1.0281p    6.6742p    6.1875a   19.8489a    6.6743p
  cdtot      3.6348f    3.6348f    3.6348f    2.0929f    3.7534f    3.6348f
  cgtot      2.5891f    2.5891f    2.5891f    1.4168f    2.5891f    2.5891f
  cstot      3.7534f    3.7534f    3.7534f    2.0929f    3.6348f    3.7534f
  cbtot      3.9690f    3.9690f    3.9690f    3.9102f    3.9690f    3.9690f
  cgs        1.2747f    1.2747f    1.2747f  423.1200a    1.2747f    1.2747f
  cgd        1.2747f    1.2747f    1.2747f  423.1200a    1.2747f    1.2747f



 subckt                                                                    
 element  0:m_p21    0:m_p22    0:m_p23    0:m_p24    0:m_n11    0:m_n12   
 model    0:pmos.6   0:pmos.6   0:pmos.6   0:pmos.6   0:nmos.12  0:nmos.12 
 region       Linear     Linear     Cutoff     Linear     Cutoff     Cutoff
  id        -3.5361p   -3.5361p -4.834e-19  -22.9539p    1.3048p    1.3048p
  ibs      9.596e-24  9.596e-24  6.226e-23  1.246e-22    0.         0.     
  ibd      1.918e-23  1.918e-23  1.868e-22  1.867e-22 -3.082e-19 -3.082e-19
  vgs       -1.8000    -1.8000    29.7903n   -1.8000     0.         0.     
  vds       -6.6330n   -6.6331n  -86.1134n  -43.0571n  107.6877m  107.6882m
  vbs        6.6325n    6.6324n   43.0558n   86.1120n    0.         0.     
  vth     -534.6764m -534.6764m -534.6764m -534.6764m  532.7714m  532.7714m
  vdsat   -698.6848m -698.6848m  -37.2701m -698.6848m   40.0123m   40.0123m
  vod       -1.2653    -1.2653   534.6764m   -1.2653  -532.7714m -532.7714m
  beta     550.2268u  550.2268u  690.4324u  550.2268u    1.6846m    1.6846m
  gam eff  648.0477m  648.0477m  648.0477m  648.0477m  968.2416m  968.2416m
  gm         1.5934p    1.5935p   15.9634a   10.3437p   41.2319p   41.2319p
  gds      533.7237u  533.7237u    5.6134p  533.7236u    2.5407p    2.5407p
  gmb        1.0282p    1.0282p    6.1876a    6.6744p   13.1899p   13.1899p
  cdtot      3.6348f    3.6348f    2.0929f    3.6348f  702.3732a  702.3731a
  cgtot      2.5891f    2.5891f    1.4168f    2.5891f  520.8064a  520.8064a
  cstot      3.7534f    3.7534f    2.0929f    3.7534f  727.3887a  727.3887a
  cbtot      3.9690f    3.9690f    3.9102f    3.9690f    1.3348f    1.3348f
  cgs        1.2747f    1.2747f  423.1200a    1.2747f  153.9300a  153.9300a
  cgd        1.2747f    1.2747f  423.1200a    1.2747f  153.9300a  153.9300a



 subckt                                                                    
 element  0:m_n13    0:m_n14    0:m_n1     0:m_n2     0:m_n21    0:m_n22   
 model    0:nmos.12  0:nmos.12  0:nmos.12  0:nmos.12  0:nmos.12  0:nmos.12 
 region       Cutoff     Linear     Cutoff     Cutoff     Cutoff     Cutoff
  id         3.2629p   10.3101p  3.000e-19   -3.2629p   43.2690f   43.2679f
  ibs     -1.925e-28 -4.217e-28 -3.082e-19 -533.7101a -3.082e-19 -3.082e-19
  ibd     -533.7104a -1.355e-25 -3.082e-19 -1.361e-25  -29.0608a  -29.0600a
  vgs        0.         1.8000  -107.6877m   -1.4439  -107.6877m -107.6882m
  vds        1.4439    10.2696n  587.9780n   -1.4439     1.6923     1.6923 
  vbs        0.         0.      -107.6877m   -1.4439  -107.6877m -107.6882m
  vth      529.0518m  533.0712m  562.6605m  529.0518m  556.0848m  556.0850m
  vdsat     40.0119m  449.5111m   40.2142m   40.0119m   40.2128m   40.2128m
  vod     -529.0518m    1.2669  -670.3482m   -1.9730  -663.7725m -663.7732m
  beta       1.6848m    1.4005m    1.6819m    1.6848m    1.6825m    1.6825m
  gam eff  968.2416m  968.2416m  980.7732m  968.2416m  980.7732m  980.7732m
  gm       103.0970p    3.3301p    9.5802a  103.0969p    1.3818p    1.3817p
  gds        1.4755p    1.0102m  510.2086f    1.4755p   19.8197f   19.8193f
  gmb       31.5399p    1.8556p    2.9285a   31.5399p  396.5083f  396.4985f
  cdtot    561.5764a    1.2364f  702.3731a  727.3887a  543.4012a  543.4012a
  cgtot    520.8064a  881.3509a  520.8064a  520.8064a  520.8064a  520.8064a
  cstot    727.3887a    1.2805f  702.3732a  561.5764a  702.3732a  702.3731a
  cbtot      1.1941f    1.3925f    1.3098f    1.1941f    1.1509f    1.1509f
  cgs      153.9300a  427.6416a  153.9300a  153.9300a  153.9300a  153.9300a
  cgd      153.9300a  427.6416a  153.9300a  153.9300a  153.9300a  153.9300a



 subckt                         x_cout     x_cout     x_sum      x_sum     
 element  0:m_n23    0:m_n24    1:mn       1:mp       2:mn       2:mp      
 model    0:nmos.12  0:nmos.12  0:nmos.12  0:pmos.12  0:nmos.12  0:pmos.12 
 region       Cutoff     Cutoff     Linear     Cutoff     Linear     Cutoff
  id        13.3904p    3.8033p    3.9138p -313.7523f    3.9138p -313.7535f
  ibs     -3.115e-19 -1.361e-25 -2.323e-28  4.884e-27 -2.323e-28  4.884e-27
  ibd     -3.115e-19   -4.1373f -7.161e-26   26.3971a -7.161e-26   26.3971a
  vgs      356.0672m  -10.2696n    1.8000   -13.2655n    1.8000  -129.1691n
  vds      356.0671m    1.8000     7.4818n   -1.8000     7.4818n   -1.8000 
  vbs       -1.4439   -10.2696n    0.         0.         0.         0.     
  vth      803.0048m  528.0606m  540.1492m -503.0053m  540.1492m -503.0053m
  vdsat     42.0534m   40.0118m  450.5491m  -38.0319m  450.5491m  -38.0319m
  vod     -446.9375m -528.0607m    1.2599   503.0053m    1.2599   503.0052m
  beta       1.6057m    1.6848m  787.4061u  222.7414u  787.4062u  222.7414u
  gam eff    1.1002   968.2416m    1.0565   694.8753m    1.0565   694.8753m
  gm       450.7623p  120.1692p    1.1759p   10.3593p    1.1759p   10.3594p
  gds       17.8975p    1.5652p  526.5126u  126.7803f  526.5126u  126.7808f
  gmb       61.5876p   36.3147p  651.8115f    3.7351p  651.8118f    3.7351p
  cdtot    543.4012a  543.4012a  684.6135a  580.2071a  684.6135a  580.2071a
  cgtot    452.8409a  520.8064a  433.3455a  477.6987a  433.3455a  477.6987a
  cstot    561.5764a  727.3887a  706.4812a  819.9240a  706.4812a  819.9240a
  cbtot    942.0985a    1.1759f  868.9110a    1.3399f  868.9110a    1.3399f
  cgs      153.9300a  153.9300a  203.6388a  134.4800a  203.6388a  134.4800a
  cgd      153.9300a  153.9300a  203.6388a  134.4800a  203.6388a  134.4800a



 ******  
 first line of the netlist must be blank.

  ******  transient analysis tnom=  25.000 temp=   0.000 *****
   pow=  1.3073E-05  from=  1.0000E-09     to=  1.7000E-07
x

        time    voltage      voltage      voltage      voltage    
                    sum         cout           a            b     
    0.            0.           0.           0.           0.       
   10.00000p      0.           0.           0.           0.       
   20.00000p      0.           0.           0.           0.       
   30.00000p      0.           0.           0.           0.       
   40.00000p      0.           0.           0.           0.       
   50.00000p      0.           0.           0.           0.       
   60.00000p      0.           0.           0.           0.       
   70.00000p      0.           0.           0.           0.       
   80.00000p      0.           0.           0.           0.       
   90.00000p      0.           0.           0.           0.       
  100.00000p      0.           0.           0.           0.       
  110.00000p      0.           0.           0.           0.       
  120.00000p      0.           0.           0.           0.       
  130.00000p      0.           0.           0.           0.       
  140.00000p      0.           0.           0.           0.       
  150.00000p      0.           0.           0.           0.       
  160.00000p      0.           0.           0.           0.       
  170.00000p      0.           0.           0.           0.       
  180.00000p      0.           0.           0.           0.       
  190.00000p      0.           0.           0.           0.       
  200.00000p      0.           0.           0.           0.       
  210.00000p      0.           0.           0.           0.       
  220.00000p      0.           0.           0.           0.       
  230.00000p      0.           0.           0.           0.       
  240.00000p      0.           0.           0.           0.       
  250.00000p      0.           0.           0.           0.       
  260.00000p      0.           0.           0.           0.       
  270.00000p      0.           0.           0.           0.       
  280.00000p      0.           0.           0.           0.       
  290.00000p      0.           0.           0.           0.       
  300.00000p      0.           0.           0.           0.       
  310.00000p      0.           0.           0.           0.       
  320.00000p      0.           0.           0.           0.       
  330.00000p      0.           0.           0.           0.       
  340.00000p      0.           0.           0.           0.       
  350.00000p      0.           0.           0.           0.       
  360.00000p      0.           0.           0.           0.       
  370.00000p      0.           0.           0.           0.       
  380.00000p      0.           0.           0.           0.       
  390.00000p      0.           0.           0.           0.       
  400.00000p      0.           0.           0.           0.       
  410.00000p      0.           0.           0.           0.       
  420.00000p      0.           0.           0.           0.       
  430.00000p      0.           0.           0.           0.       
  440.00000p      0.           0.           0.           0.       
  450.00000p      0.           0.           0.           0.       
  460.00000p      0.           0.           0.           0.       
  470.00000p      0.           0.           0.           0.       
  480.00000p      0.           0.           0.           0.       
  490.00000p      0.           0.           0.           0.       
  500.00000p      0.           0.           0.           0.       
  510.00000p      0.           0.           0.           0.       
  520.00000p      0.           0.           0.           0.       
  530.00000p      0.           0.           0.           0.       
  540.00000p      0.           0.           0.           0.       
  550.00000p      0.           0.           0.           0.       
  560.00000p      0.           0.           0.           0.       
  570.00000p      0.           0.           0.           0.       
  580.00000p      0.           0.           0.           0.       
  590.00000p      0.           0.           0.           0.       
  600.00000p      0.           0.           0.           0.       
  610.00000p      0.           0.           0.           0.       
  620.00000p      0.           0.           0.           0.       
  630.00000p      0.           0.           0.           0.       
  640.00000p      0.           0.           0.           0.       
  650.00000p      0.           0.           0.           0.       
  660.00000p      0.           0.           0.           0.       
  670.00000p      0.           0.           0.           0.       
  680.00000p      0.           0.           0.           0.       
  690.00000p      0.           0.           0.           0.       
  700.00000p      0.           0.           0.           0.       
  710.00000p      0.           0.           0.           0.       
  720.00000p      0.           0.           0.           0.       
  730.00000p      0.           0.           0.           0.       
  740.00000p      0.           0.           0.           0.       
  750.00000p      0.           0.           0.           0.       
  760.00000p      0.           0.           0.           0.       
  770.00000p      0.           0.           0.           0.       
  780.00000p      0.           0.           0.           0.       
  790.00000p      0.           0.           0.           0.       
  800.00000p      0.           0.           0.           0.       
  810.00000p      0.           0.           0.           0.       
  820.00000p      0.           0.           0.           0.       
  830.00000p      0.           0.           0.           0.       
  840.00000p      0.           0.           0.           0.       
  850.00000p      0.           0.           0.           0.       
  860.00000p      0.           0.           0.           0.       
  870.00000p      0.           0.           0.           0.       
  880.00000p      0.           0.           0.           0.       
  890.00000p      0.           0.           0.           0.       
  900.00000p      0.           0.           0.           0.       
  910.00000p      0.           0.           0.           0.       
  920.00000p      0.           0.           0.           0.       
  930.00000p      0.           0.           0.           0.       
  940.00000p      0.           0.           0.           0.       
  950.00000p      0.           0.           0.           0.       
  960.00000p      0.           0.           0.           0.       
  970.00000p      0.           0.           0.           0.       
  980.00000p      0.           0.           0.           0.       
  990.00000p      0.           0.           0.           0.       
    1.00000n      0.           0.           0.           0.       
    1.01000n      0.           0.           0.           0.       
    1.02000n      0.           0.           0.           0.       
    1.03000n      0.           0.           0.           0.       
    1.04000n      0.           0.           0.           0.       
    1.05000n      0.           0.           0.           0.       
    1.06000n      0.           0.           0.           0.       
    1.07000n      0.           0.           0.           0.       
    1.08000n      0.           0.           0.           0.       
    1.09000n      0.           0.           0.           0.       
    1.10000n      0.           0.           0.           0.       
    1.11000n      0.           0.           0.           0.       
    1.12000n      0.           0.           0.           0.       
    1.13000n      0.           0.           0.           0.       
    1.14000n      0.           0.           0.           0.       
    1.15000n      0.           0.           0.           0.       
    1.16000n      0.           0.           0.           0.       
    1.17000n      0.           0.           0.           0.       
    1.18000n      0.           0.           0.           0.       
    1.19000n      0.           0.           0.           0.       
    1.20000n      0.           0.           0.           0.       
    1.21000n      0.           0.           0.           0.       
    1.22000n      0.           0.           0.           0.       
    1.23000n      0.           0.           0.           0.       
    1.24000n      0.           0.           0.           0.       
    1.25000n      0.           0.           0.           0.       
    1.26000n      0.           0.           0.           0.       
    1.27000n      0.           0.           0.           0.       
    1.28000n      0.           0.           0.           0.       
    1.29000n      0.           0.           0.           0.       
    1.30000n      0.           0.           0.           0.       
    1.31000n      0.           0.           0.           0.       
    1.32000n      0.           0.           0.           0.       
    1.33000n      0.           0.           0.           0.       
    1.34000n      0.           0.           0.           0.       
    1.35000n      0.           0.           0.           0.       
    1.36000n      0.           0.           0.           0.       
    1.37000n      0.           0.           0.           0.       
    1.38000n      0.           0.           0.           0.       
    1.39000n      0.           0.           0.           0.       
    1.40000n      0.           0.           0.           0.       
    1.41000n      0.           0.           0.           0.       
    1.42000n      0.           0.           0.           0.       
    1.43000n      0.           0.           0.           0.       
    1.44000n      0.           0.           0.           0.       
    1.45000n      0.           0.           0.           0.       
    1.46000n      0.           0.           0.           0.       
    1.47000n      0.           0.           0.           0.       
    1.48000n      0.           0.           0.           0.       
    1.49000n      0.           0.           0.           0.       
    1.50000n      0.           0.           0.           0.       
    1.51000n      0.           0.           0.           0.       
    1.52000n      0.           0.           0.           0.       
    1.53000n      0.           0.           0.           0.       
    1.54000n      0.           0.           0.           0.       
    1.55000n      0.           0.           0.           0.       
    1.56000n      0.           0.           0.           0.       
    1.57000n      0.           0.           0.           0.       
    1.58000n      0.           0.           0.           0.       
    1.59000n      0.           0.           0.           0.       
    1.60000n      0.           0.           0.           0.       
    1.61000n      0.           0.           0.           0.       
    1.62000n      0.           0.           0.           0.       
    1.63000n      0.           0.           0.           0.       
    1.64000n      0.           0.           0.           0.       
    1.65000n      0.           0.           0.           0.       
    1.66000n      0.           0.           0.           0.       
    1.67000n      0.           0.           0.           0.       
    1.68000n      0.           0.           0.           0.       
    1.69000n      0.           0.           0.           0.       
    1.70000n      0.           0.           0.           0.       
    1.71000n      0.           0.           0.           0.       
    1.72000n      0.           0.           0.           0.       
    1.73000n      0.           0.           0.           0.       
    1.74000n      0.           0.           0.           0.       
    1.75000n      0.           0.           0.           0.       
    1.76000n      0.           0.           0.           0.       
    1.77000n      0.           0.           0.           0.       
    1.78000n      0.           0.           0.           0.       
    1.79000n      0.           0.           0.           0.       
    1.80000n      0.           0.           0.           0.       
    1.81000n      0.           0.           0.           0.       
    1.82000n      0.           0.           0.           0.       
    1.83000n      0.           0.           0.           0.       
    1.84000n      0.           0.           0.           0.       
    1.85000n      0.           0.           0.           0.       
    1.86000n      0.           0.           0.           0.       
    1.87000n      0.           0.           0.           0.       
    1.88000n      0.           0.           0.           0.       
    1.89000n      0.           0.           0.           0.       
    1.90000n      0.           0.           0.           0.       
    1.91000n      0.           0.           0.           0.       
    1.92000n      0.           0.           0.           0.       
    1.93000n      0.           0.           0.           0.       
    1.94000n      0.           0.           0.           0.       
    1.95000n      0.           0.           0.           0.       
    1.96000n      0.           0.           0.           0.       
    1.97000n      0.           0.           0.           0.       
    1.98000n      0.           0.           0.           0.       
    1.99000n      0.           0.           0.           0.       
    2.00000n      0.           0.           0.           0.       
    2.01000n      0.           0.           0.           0.       
    2.02000n      0.           0.           0.           0.       
    2.03000n      0.           0.           0.           0.       
    2.04000n      0.           0.           0.           0.       
    2.05000n      0.           0.           0.           0.       
    2.06000n      0.           0.           0.           0.       
    2.07000n      0.           0.           0.           0.       
    2.08000n      0.           0.           0.           0.       
    2.09000n      0.           0.           0.           0.       
    2.10000n      0.           0.           0.           0.       
    2.11000n      0.           0.           0.           0.       
    2.12000n      0.           0.           0.           0.       
    2.13000n      0.           0.           0.           0.       
    2.14000n      0.           0.           0.           0.       
    2.15000n      0.           0.           0.           0.       
    2.16000n      0.           0.           0.           0.       
    2.17000n      0.           0.           0.           0.       
    2.18000n      0.           0.           0.           0.       
    2.19000n      0.           0.           0.           0.       
    2.20000n      0.           0.           0.           0.       
    2.21000n      0.           0.           0.           0.       
    2.22000n      0.           0.           0.           0.       
    2.23000n      0.           0.           0.           0.       
    2.24000n      0.           0.           0.           0.       
    2.25000n      0.           0.           0.           0.       
    2.26000n      0.           0.           0.           0.       
    2.27000n      0.           0.           0.           0.       
    2.28000n      0.           0.           0.           0.       
    2.29000n      0.           0.           0.           0.       
    2.30000n      0.           0.           0.           0.       
    2.31000n      0.           0.           0.           0.       
    2.32000n      0.           0.           0.           0.       
    2.33000n      0.           0.           0.           0.       
    2.34000n      0.           0.           0.           0.       
    2.35000n      0.           0.           0.           0.       
    2.36000n      0.           0.           0.           0.       
    2.37000n      0.           0.           0.           0.       
    2.38000n      0.           0.           0.           0.       
    2.39000n      0.           0.           0.           0.       
    2.40000n      0.           0.           0.           0.       
    2.41000n      0.           0.           0.           0.       
    2.42000n      0.           0.           0.           0.       
    2.43000n      0.           0.           0.           0.       
    2.44000n      0.           0.           0.           0.       
    2.45000n      0.           0.           0.           0.       
    2.46000n      0.           0.           0.           0.       
    2.47000n      0.           0.           0.           0.       
    2.48000n      0.           0.           0.           0.       
    2.49000n      0.           0.           0.           0.       
    2.50000n    563.1898u      3.0416m      0.           0.       
    2.51000n     -8.3138m     -4.0741m      0.           0.       
    2.52000n     -9.9062m     -1.2239m      0.           0.       
    2.53000n     -9.3486m   -601.9436u      0.           0.       
    2.54000n     -8.5155m   -435.8899u      0.           0.       
    2.55000n     -3.4481m   -346.7236u      0.           0.       
    2.56000n      7.8034m   -274.0333u      0.           0.       
    2.57000n     53.6526m   -214.6312u      0.           0.       
    2.58000n    193.6139m   -191.3756u      0.           0.       
    2.59000n    404.7131m   -195.4426u      0.           0.       
    2.60000n    656.7482m   -214.6828u      0.           0.       
    2.61000n    980.8190m   -117.4310u      0.           0.       
    2.62000n      1.3643      24.0564u      0.           0.       
    2.63000n      1.5801     117.9488u      0.           0.       
    2.64000n      1.7278     196.1189u      0.           0.       
    2.65000n      1.7882     256.4788u      0.           0.       
    2.66000n      1.7962     258.8613u      0.           0.       
    2.67000n      1.7928     247.9089u      0.           0.       
    2.68000n      1.7947     236.1596u      0.           0.       
    2.69000n      1.7965     224.4104u      0.           0.       
    2.70000n      1.7978     201.7283u      0.           0.       
    2.71000n      1.7982     165.1595u      0.           0.       
    2.72000n      1.7986     132.8744u      0.           0.       
    2.73000n      1.7988     119.2112u      0.           0.       
    2.74000n      1.7990     105.5479u      0.           0.       
    2.75000n      1.7992      91.8847u      0.           0.       
    2.76000n      1.7994      78.2214u      0.           0.       
    2.77000n      1.7995      68.7802u      0.           0.       
    2.78000n      1.7995      59.7231u      0.           0.       
    2.79000n      1.7996      50.6660u      0.           0.       
    2.80000n      1.7996      41.6089u      0.           0.       
    2.81000n      1.7996      32.5517u      0.           0.       
    2.82000n      1.7997      23.4946u      0.           0.       
    2.83000n      1.7997      17.1587u      0.           0.       
    2.84000n      1.7997      16.3731u      0.           0.       
    2.85000n      1.7997      15.5874u      0.           0.       
    2.86000n      1.7998      14.8018u      0.           0.       
    2.87000n      1.7998      14.0162u      0.           0.       
    2.88000n      1.7998      13.2306u      0.           0.       
    2.89000n      1.7998      12.4450u      0.           0.       
    2.90000n      1.7999      11.6593u      0.           0.       
    2.91000n      1.7999      10.8737u      0.           0.       
    2.92000n      1.7999      10.0881u      0.           0.       
    2.93000n      1.7999       9.3025u      0.           0.       
    2.94000n      1.8000       8.5169u      0.           0.       
    2.95000n      1.8000       7.8732u      0.           0.       
    2.96000n      1.8000       7.2335u      0.           0.       
    2.97000n      1.8000       6.5938u      0.           0.       
    2.98000n      1.8000       5.9541u      0.           0.       
    2.99000n      1.8000       5.3145u      0.           0.       
    3.00000n      1.8000       4.6748u      0.           0.       
    3.01000n      1.7999       4.0351u      0.           0.       
    3.02000n      1.7999       3.3954u      0.           0.       
    3.03000n      1.7999       2.7557u      0.           0.       
    3.04000n      1.7999       2.1161u      0.           0.       
    3.05000n      1.7999       1.4764u      0.           0.       
    3.06000n      1.7999     836.6845n      0.           0.       
    3.07000n      1.7999     197.0016n      0.           0.       
    3.08000n      1.7999    -442.6813n      0.           0.       
    3.09000n      1.7999      -1.0824u      0.           0.       
    3.10000n      1.7999      -1.7220u      0.           0.       
    3.11000n      1.7999      -2.3617u      0.           0.       
    3.12000n      1.7999      -3.0014u      0.           0.       
    3.13000n      1.7999      -2.7301u      0.           0.       
    3.14000n      1.7999      -2.4343u      0.           0.       
    3.15000n      1.8000      -2.1385u      0.           0.       
    3.16000n      1.8000      -1.8427u      0.           0.       
    3.17000n      1.8000      -1.5469u      0.           0.       
    3.18000n      1.8000      -1.2511u      0.           0.       
    3.19000n      1.8000    -955.2996n      0.           0.       
    3.20000n      1.8000    -659.4992n      0.           0.       
    3.21000n      1.8000    -363.6989n      0.           0.       
    3.22000n      1.8000     -67.8986n      0.           0.       
    3.23000n      1.8000     227.9017n      0.           0.       
    3.24000n      1.8000     523.7020n      0.           0.       
    3.25000n      1.8000     819.5024n      0.           0.       
    3.26000n      1.8000       1.1153u      0.           0.       
    3.27000n      1.8000       1.4111u      0.           0.       
    3.28000n      1.8000       1.7069u      0.           0.       
    3.29000n      1.8000       2.0027u      0.           0.       
    3.30000n      1.8000       2.2985u      0.           0.       
    3.31000n      1.8000       2.5943u      0.           0.       
    3.32000n      1.8000       2.8901u      0.           0.       
    3.33000n      1.8000       3.1859u      0.           0.       
    3.34000n      1.8000       3.4817u      0.           0.       
    3.35000n      1.8000       3.7775u      0.           0.       
    3.36000n      1.8000       4.0733u      0.           0.       
    3.37000n      1.8000       4.3691u      0.           0.       
    3.38000n      1.8000       4.5255u      0.           0.       
    3.39000n      1.8000       4.3103u      0.           0.       
    3.40000n      1.8000       4.0950u      0.           0.       
    3.41000n      1.8000       3.8797u      0.           0.       
    3.42000n      1.8000       3.6644u      0.           0.       
    3.43000n      1.8000       3.4492u      0.           0.       
    3.44000n      1.8000       3.2339u      0.           0.       
    3.45000n      1.8000       3.0186u      0.           0.       
    3.46000n      1.8000       2.8033u      0.           0.       
    3.47000n      1.8000       2.5881u      0.           0.       
    3.48000n      1.8000       2.3728u      0.           0.       
    3.49000n      1.8000       2.1575u      0.           0.       
    3.50000n      1.8000       1.9422u      0.           0.       
    3.51000n      1.8000       1.7270u      0.           0.       
    3.52000n      1.8000       1.5117u      0.           0.       
    3.53000n      1.8000       1.2964u      0.           0.       
    3.54000n      1.8000       1.0811u      0.           0.       
    3.55000n      1.8000     865.8753n      0.           0.       
    3.56000n      1.8000     650.6015n      0.           0.       
    3.57000n      1.8000     435.3277n      0.           0.       
    3.58000n      1.8000     220.0539n      0.           0.       
    3.59000n      1.8000       4.7801n      0.           0.       
    3.60000n      1.8000    -210.4937n      0.           0.       
    3.61000n      1.8000    -425.7674n      0.           0.       
    3.62000n      1.8000    -641.0412n      0.           0.       
    3.63000n      1.8000    -856.3150n      0.           0.       
    3.64000n      1.8000      -1.0716u      0.           0.       
    3.65000n      1.8000      -1.2869u      0.           0.       
    3.66000n      1.8000      -1.5021u      0.           0.       
    3.67000n      1.8000      -1.7174u      0.           0.       
    3.68000n      1.8000      -1.9327u      0.           0.       
    3.69000n      1.8000      -2.1480u      0.           0.       
    3.70000n      1.8000      -2.3632u      0.           0.       
    3.71000n      1.8000      -2.5785u      0.           0.       
    3.72000n      1.8000      -2.7938u      0.           0.       
    3.73000n      1.8000      -3.0091u      0.           0.       
    3.74000n      1.8000      -3.2243u      0.           0.       
    3.75000n      1.8000      -3.4396u      0.           0.       
    3.76000n      1.8000      -3.6549u      0.           0.       
    3.77000n      1.8000      -3.7977u      0.           0.       
    3.78000n      1.8000      -3.6737u      0.           0.       
    3.79000n      1.8000      -3.5498u      0.           0.       
    3.80000n      1.8000      -3.4258u      0.           0.       
    3.81000n      1.8000      -3.3019u      0.           0.       
    3.82000n      1.8000      -3.1779u      0.           0.       
    3.83000n      1.8000      -3.0540u      0.           0.       
    3.84000n      1.8000      -2.9300u      0.           0.       
    3.85000n      1.8000      -2.8060u      0.           0.       
    3.86000n      1.8000      -2.6821u      0.           0.       
    3.87000n      1.8000      -2.5581u      0.           0.       
    3.88000n      1.8000      -2.4342u      0.           0.       
    3.89000n      1.8000      -2.3102u      0.           0.       
    3.90000n      1.8000      -2.1863u      0.           0.       
    3.91000n      1.8000      -2.0623u      0.           0.       
    3.92000n      1.8000      -1.9383u      0.           0.       
    3.93000n      1.8000      -1.8144u      0.           0.       
    3.94000n      1.8000      -1.6904u      0.           0.       
    3.95000n      1.8000      -1.5665u      0.           0.       
    3.96000n      1.8000      -1.4425u      0.           0.       
    3.97000n      1.8000      -1.3186u      0.           0.       
    3.98000n      1.8000      -1.1946u      0.           0.       
    3.99000n      1.8000      -1.0706u      0.           0.       
    4.00000n      1.8000    -946.6923n      0.           0.       
    4.01000n      1.8000    -822.7356n      0.           0.       
    4.02000n      1.8000    -698.7790n      0.           0.       
    4.03000n      1.8000    -574.8224n      0.           0.       
    4.04000n      1.8000    -450.8657n      0.           0.       
    4.05000n      1.8000    -326.9091n      0.           0.       
    4.06000n      1.8000    -202.9525n      0.           0.       
    4.07000n      1.8000     -78.9958n      0.           0.       
    4.08000n      1.8000      44.9608n      0.           0.       
    4.09000n      1.8000     168.9175n      0.           0.       
    4.10000n      1.8000     292.8741n      0.           0.       
    4.11000n      1.8000     416.8307n      0.           0.       
    4.12000n      1.8000     540.7874n      0.           0.       
    4.13000n      1.8000     664.7440n      0.           0.       
    4.14000n      1.8000     788.7006n      0.           0.       
    4.15000n      1.8000     912.6573n      0.           0.       
    4.16000n      1.8000       1.0366u      0.           0.       
    4.17000n      1.8000       1.1606u      0.           0.       
    4.18000n      1.8000       1.2845u      0.           0.       
    4.19000n      1.8000       1.4085u      0.           0.       
    4.20000n      1.8000       1.5324u      0.           0.       
    4.21000n      1.8000       1.6564u      0.           0.       
    4.22000n      1.8000       1.7804u      0.           0.       
    4.23000n      1.8000       1.9043u      0.           0.       
    4.24000n      1.8000       2.0283u      0.           0.       
    4.25000n      1.8000       2.1522u      0.           0.       
    4.26000n      1.8000       2.2762u      0.           0.       
    4.27000n      1.8000       2.4001u      0.           0.       
    4.28000n      1.8000       2.5241u      0.           0.       
    4.29000n      1.8000       2.6481u      0.           0.       
    4.30000n      1.8000       2.7720u      0.           0.       
    4.31000n      1.8000       2.8960u      0.           0.       
    4.32000n      1.8000       3.0199u      0.           0.       
    4.33000n      1.8000       3.1439u      0.           0.       
    4.34000n      1.8000       3.2678u      0.           0.       
    4.35000n      1.8000       3.3918u      0.           0.       
    4.36000n      1.8000       3.5157u      0.           0.       
    4.37000n      1.8000       3.6397u      0.           0.       
    4.38000n      1.8000       3.7637u      0.           0.       
    4.39000n      1.8000       3.8876u      0.           0.       
    4.40000n      1.8000       4.0116u      0.           0.       
    4.41000n      1.8000       3.9236u      0.           0.       
    4.42000n      1.8000       3.7896u      0.           0.       
    4.43000n      1.8000       3.6557u      0.           0.       
    4.44000n      1.8000       3.5218u      0.           0.       
    4.45000n      1.8000       3.3878u      0.           0.       
    4.46000n      1.8000       3.2539u      0.           0.       
    4.47000n      1.8000       3.1199u      0.           0.       
    4.48000n      1.8000       2.9860u      0.           0.       
    4.49000n      1.8000       2.8521u      0.           0.       
    4.50000n      1.8000       2.7181u      0.           0.       
    4.51000n      1.8000       2.5842u      0.           0.       
    4.52000n      1.8000       2.4503u      0.           0.       
    4.53000n      1.8000       2.3163u      0.           0.       
    4.54000n      1.8000       2.1824u      0.           0.       
    4.55000n      1.8000       2.0484u      0.           0.       
    4.56000n      1.8000       1.9145u      0.           0.       
    4.57000n      1.8000       1.7806u      0.           0.       
    4.58000n      1.8000       1.6466u      0.           0.       
    4.59000n      1.8000       1.5127u      0.           0.       
    4.60000n      1.8000       1.3787u      0.           0.       
    4.61000n      1.8000       1.2448u      0.           0.       
    4.62000n      1.8000       1.1109u      0.           0.       
    4.63000n      1.8000     976.9168n      0.           0.       
    4.64000n      1.8000     842.9773n      0.           0.       
    4.65000n      1.8000     709.0378n      0.           0.       
    4.66000n      1.8000     575.0983n      0.           0.       
    4.67000n      1.8000     441.1588n      0.           0.       
    4.68000n      1.8000     307.2193n      0.           0.       
    4.69000n      1.8000     173.2798n      0.           0.       
    4.70000n      1.8000      39.3403n      0.           0.       
    4.71000n      1.8000     -94.5992n      0.           0.       
    4.72000n      1.8000    -228.5388n      0.           0.       
    4.73000n      1.8000    -362.4783n      0.           0.       
    4.74000n      1.8000    -496.4178n      0.           0.       
    4.75000n      1.8000    -630.3573n      0.           0.       
    4.76000n      1.8000    -764.2968n      0.           0.       
    4.77000n      1.8000    -898.2363n      0.           0.       
    4.78000n      1.8000      -1.0322u      0.           0.       
    4.79000n      1.8000      -1.1661u      0.           0.       
    4.80000n      1.8000      -1.3001u      0.           0.       
    4.81000n      1.8000      -1.4340u      0.           0.       
    4.82000n      1.8000      -1.5679u      0.           0.       
    4.83000n      1.8000      -1.7019u      0.           0.       
    4.84000n      1.8000      -1.8358u      0.           0.       
    4.85000n      1.8000      -1.9698u      0.           0.       
    4.86000n      1.8000      -2.1037u      0.           0.       
    4.87000n      1.8000      -2.2376u      0.           0.       
    4.88000n      1.8000      -2.3716u      0.           0.       
    4.89000n      1.8000      -2.5055u      0.           0.       
    4.90000n      1.8000      -2.6394u      0.           0.       
    4.91000n      1.8000      -2.7734u      0.           0.       
    4.92000n      1.8000      -2.9073u      0.           0.       
    4.93000n      1.8000      -3.0413u      0.           0.       
    4.94000n      1.8000      -3.1752u      0.           0.       
    4.95000n      1.8000      -3.3091u      0.           0.       
    4.96000n      1.8000      -3.4431u      0.           0.       
    4.97000n      1.8000      -3.5770u      0.           0.       
    4.98000n      1.8000      -3.7110u      0.           0.       
    4.99000n      1.8000      -3.8449u      0.           0.       
    5.00000n      1.7888     -10.9529m      0.           0.       
    5.01000n      1.7963       2.3376m      0.           0.       
    5.02000n      1.8004       1.8205m      0.           0.       
    5.03000n      1.8040       1.3187m      0.           0.       
    5.04000n      1.8085       1.0361m      0.           0.       
    5.05000n      1.8144     813.5378u      0.           0.       
    5.06000n      1.8201     643.4806u      0.           0.       
    5.07000n      1.8254     513.4650u      0.           0.       
    5.08000n      1.8231     403.3041u      0.           0.       
    5.09000n      1.8134     312.0371u      0.           0.       
    5.10000n      1.8037     220.7701u      0.           0.       
    5.11000n      1.7417     144.7072u      0.           0.       
    5.12000n      1.6405      80.0696u      0.           0.       
    5.13000n      1.4778      33.3321u      0.           0.       
    5.14000n      1.2570     -17.6233u      0.           0.       
    5.15000n    918.5630m    -80.0136u      0.           0.       
    5.16000n    466.7201m   -146.4178u      0.           0.       
    5.17000n    154.4265m   -159.7921u      0.           0.       
    5.18000n      5.5976m   -111.1555u      0.           0.       
    5.19000n    -43.7327m    -17.6066u      0.           0.       
    5.20000n   -669.9037u    -59.1236u      0.           0.       
    5.21000n     19.7537m    -79.3597u      0.           0.       
    5.22000n      7.0606m    -67.8139u      0.           0.       
    5.23000n     -5.6324m    -56.2681u      0.           0.       
    5.24000n     -3.7118m    -52.8831u      0.           0.       
    5.25000n      6.8344m    -54.3148u      0.           0.       
    5.26000n      4.7831m    -51.2459u      0.           0.       
    5.27000n     55.4518u    -47.2208u      0.           0.       
    5.28000n     -2.2550m    -43.2029u      0.           0.       
    5.29000n   -143.4264u    -39.1983u      0.           0.       
    5.30000n      1.9681m    -35.1937u      0.           0.       
    5.31000n      3.9092m    -31.2740u      0.           0.       
    5.32000n      2.4755m    -29.0364u      0.           0.       
    5.33000n      1.0419m    -26.7988u      0.           0.       
    5.34000n   -391.7672u    -24.5613u      0.           0.       
    5.35000n     -1.8254m    -22.3237u      0.           0.       
    5.36000n     -1.3416m    -20.1613u      0.           0.       
    5.37000n   -691.4935u    -18.0054u      0.           0.       
    5.38000n    -41.4105u    -15.8495u      0.           0.       
    5.39000n    608.6725u    -13.6935u      0.           0.       
    5.40000n      1.2588m    -11.5376u      0.           0.       
    5.41000n      1.9088m     -9.3817u      0.           0.       
    5.42000n      2.0121m     -8.1018u      0.           0.       
    5.43000n      1.5986m     -7.6497u      0.           0.       
    5.44000n      1.1850m     -7.1977u      0.           0.       
    5.45000n    771.5170u     -6.7457u      0.           0.       
    5.46000n    357.9842u     -6.2937u      0.           0.       
    5.47000n    -55.5487u     -5.8417u      0.           0.       
    5.48000n   -469.0815u     -5.3896u      0.           0.       
    5.49000n   -882.6143u     -4.9376u      0.           0.       
    5.50000n     -1.2961m     -4.4856u      0.           0.       
    5.51000n     -1.7097m     -4.0336u      0.           0.       
    5.52000n     -1.5570m     -3.6450u      0.           0.       
    5.53000n     -1.3027m     -3.2678u      0.           0.       
    5.54000n     -1.0484m     -2.8906u      0.           0.       
    5.55000n   -794.0864u     -2.5133u      0.           0.       
    5.56000n   -539.7729u     -2.1361u      0.           0.       
    5.57000n   -285.4594u     -1.7589u      0.           0.       
    5.58000n    -31.1460u     -1.3817u      0.           0.       
    5.59000n    223.1675u     -1.0045u      0.           0.       
    5.60000n    477.4810u   -627.2708n      0.           0.       
    5.61000n    731.7945u   -250.0576n      0.           0.       
    5.62000n    986.1080u    127.1556n      0.           0.       
    5.63000n      1.2404m    504.3689n      0.           0.       
    5.64000n      1.4947m    881.5821n      0.           0.       
    5.65000n      1.6417m      1.1322u      0.           0.       
    5.66000n      1.4595m    994.6458n      0.           0.       
    5.67000n      1.2772m    857.0783n      0.           0.       
    5.68000n      1.0950m    719.5107n      0.           0.       
    5.69000n    912.7738u    581.9431n      0.           0.       
    5.70000n    730.5413u    444.3755n      0.           0.       
    5.71000n    548.3087u    306.8079n      0.           0.       
    5.72000n    366.0762u    169.2403n      0.           0.       
    5.73000n    183.8436u     31.6727n      0.           0.       
    5.74000n      1.6111u   -105.8949n      0.           0.       
    5.75000n   -180.6215u   -243.4625n      0.           0.       
    5.76000n   -362.8540u   -381.0301n      0.           0.       
    5.77000n   -545.0866u   -518.5977n      0.           0.       
    5.78000n   -727.3191u   -656.1653n      0.           0.       
    5.79000n   -909.5517u   -793.7329n      0.           0.       
    5.80000n     -1.0918m   -931.3005n      0.           0.       
    5.81000n     -1.2740m     -1.0689u      0.           0.       
    5.82000n     -1.4562m     -1.2064u      0.           0.       
    5.83000n     -1.5690m     -1.2895u      0.           0.       
    5.84000n     -1.4581m     -1.1973u      0.           0.       
    5.85000n     -1.3473m     -1.1051u      0.           0.       
    5.86000n     -1.2364m     -1.0128u      0.           0.       
    5.87000n     -1.1256m   -920.6120n      0.           0.       
    5.88000n     -1.0147m   -828.3867n      0.           0.       
    5.89000n   -903.8873u   -736.1613n      0.           0.       
    5.90000n   -793.0378u   -643.9360n      0.           0.       
    5.91000n   -682.1883u   -551.7106n      0.           0.       
    5.92000n   -571.3387u   -459.4853n      0.           0.       
    5.93000n   -460.4892u   -367.2599n      0.           0.       
    5.94000n   -349.6397u   -275.0346n      0.           0.       
    5.95000n   -238.7901u   -182.8092n      0.           0.       
    5.96000n   -127.9406u    -90.5839n      0.           0.       
    5.97000n    -17.0910u      1.6415n      0.           0.       
    5.98000n     93.7585u     93.8668n      0.           0.       
    5.99000n    204.6080u    186.0922n      0.           0.       
    6.00000n    315.4576u    278.3175n      0.           0.       
    6.01000n    426.3071u    370.5429n      0.           0.       
    6.02000n    537.1566u    462.7683n      0.           0.       
    6.03000n    648.0062u    554.9936n      0.           0.       
    6.04000n    758.8557u    647.2190n      0.           0.       
    6.05000n    869.7052u    739.4443n      0.           0.       
    6.06000n    980.5548u    831.6697n      0.           0.       
    6.07000n      1.0914m    923.8950n      0.           0.       
    6.08000n      1.2023m      1.0161u      0.           0.       
    6.09000n      1.3131m      1.1083u      0.           0.       
    6.10000n      1.4240m      1.2006u      0.           0.       
    6.11000n      1.5348m      1.2928u      0.           0.       
    6.12000n      1.4834m      1.2491u      0.           0.       
    6.13000n      1.4233m      1.1981u      0.           0.       
    6.14000n      1.3632m      1.1471u      0.           0.       
    6.15000n      1.3031m      1.0961u      0.           0.       
    6.16000n      1.2430m      1.0452u      0.           0.       
    6.17000n      1.1829m    994.1845n      0.           0.       
    6.18000n      1.1228m    943.2065n      0.           0.       
    6.19000n      1.0627m    892.2285n      0.           0.       
    6.20000n      1.0026m    841.2504n      0.           0.       
    6.21000n    942.4648u    790.2724n      0.           0.       
    6.22000n    882.3649u    739.2944n      0.           0.       
    6.23000n    822.2649u    688.3164n      0.           0.       
    6.24000n    762.1649u    637.3384n      0.           0.       
    6.25000n    702.0650u    586.3604n      0.           0.       
    6.26000n    641.9650u    535.3824n      0.           0.       
    6.27000n    581.8650u    484.4043n      0.           0.       
    6.28000n    521.7650u    433.4263n      0.           0.       
    6.29000n    461.6651u    382.4483n      0.           0.       
    6.30000n    401.5651u    331.4703n      0.           0.       
    6.31000n    341.4651u    280.4923n      0.           0.       
    6.32000n    281.3652u    229.5143n      0.           0.       
    6.33000n    221.2652u    178.5362n      0.           0.       
    6.34000n    161.1652u    127.5582n      0.           0.       
    6.35000n    101.0653u     76.5802n      0.           0.       
    6.36000n     40.9653u     25.6022n      0.           0.       
    6.37000n    -19.1347u    -25.3758n      0.           0.       
    6.38000n    -79.2346u    -76.3538n      0.           0.       
    6.39000n   -139.3346u   -127.3318n      0.           0.       
    6.40000n   -199.4346u   -178.3099n      0.           0.       
    6.41000n   -259.5345u   -229.2879n      0.           0.       
    6.42000n   -319.6345u   -280.2659n      0.           0.       
    6.43000n   -379.7345u   -331.2439n      0.           0.       
    6.44000n   -439.8345u   -382.2219n      0.           0.       
    6.45000n   -499.9344u   -433.1999n      0.           0.       
    6.46000n   -560.0344u   -484.1779n      0.           0.       
    6.47000n   -620.1344u   -535.1560n      0.           0.       
    6.48000n   -680.2343u   -586.1340n      0.           0.       
    6.49000n   -740.3343u   -637.1120n      0.           0.       
    6.50000n   -800.4343u   -688.0900n      0.           0.       
    6.51000n   -860.5342u   -739.0680n      0.           0.       
    6.52000n   -920.6342u   -790.0460n      0.           0.       
    6.53000n   -980.7342u   -841.0240n      0.           0.       
    6.54000n     -1.0408m   -892.0021n      0.           0.       
    6.55000n     -1.1009m   -942.9801n      0.           0.       
    6.56000n     -1.1610m   -993.9581n      0.           0.       
    6.57000n     -1.2211m     -1.0449u      0.           0.       
    6.58000n     -1.2812m     -1.0959u      0.           0.       
    6.59000n     -1.3413m     -1.1469u      0.           0.       
    6.60000n     -1.4014m     -1.1979u      0.           0.       
    6.61000n     -1.4615m     -1.2488u      0.           0.       
    6.62000n     -1.5002m     -1.2815u      0.           0.       
    6.63000n     -1.4623m     -1.2488u      0.           0.       
    6.64000n     -1.4244m     -1.2162u      0.           0.       
    6.65000n     -1.3866m     -1.1835u      0.           0.       
    6.66000n     -1.3487m     -1.1508u      0.           0.       
    6.67000n     -1.3108m     -1.1182u      0.           0.       
    6.68000n     -1.2730m     -1.0855u      0.           0.       
    6.69000n     -1.2351m     -1.0528u      0.           0.       
    6.70000n     -1.1972m     -1.0202u      0.           0.       
    6.71000n     -1.1594m   -987.4978n      0.           0.       
    6.72000n     -1.1215m   -954.8323n      0.           0.       
    6.73000n     -1.0837m   -922.1667n      0.           0.       
    6.74000n     -1.0458m   -889.5012n      0.           0.       
    6.75000n     -1.0079m   -856.8356n      0.           0.       
    6.76000n   -970.0675u   -824.1701n      0.           0.       
    6.77000n   -932.2040u   -791.5045n      0.           0.       
    6.78000n   -894.3405u   -758.8390n      0.           0.       
    6.79000n   -856.4771u   -726.1734n      0.           0.       
    6.80000n   -818.6136u   -693.5079n      0.           0.       
    6.81000n   -780.7501u   -660.8423n      0.           0.       
    6.82000n   -742.8867u   -628.1768n      0.           0.       
    6.83000n   -705.0232u   -595.5112n      0.           0.       
    6.84000n   -667.1597u   -562.8457n      0.           0.       
    6.85000n   -629.2963u   -530.1801n      0.           0.       
    6.86000n   -591.4328u   -497.5146n      0.           0.       
    6.87000n   -553.5693u   -464.8490n      0.           0.       
    6.88000n   -515.7059u   -432.1835n      0.           0.       
    6.89000n   -477.8424u   -399.5179n      0.           0.       
    6.90000n   -439.9789u   -366.8523n      0.           0.       
    6.91000n   -402.1155u   -334.1868n      0.           0.       
    6.92000n   -364.2520u   -301.5212n      0.           0.       
    6.93000n   -326.3885u   -268.8557n      0.           0.       
    6.94000n   -288.5251u   -236.1901n      0.           0.       
    6.95000n   -250.6616u   -203.5246n      0.           0.       
    6.96000n   -212.7981u   -170.8590n      0.           0.       
    6.97000n   -174.9347u   -138.1935n      0.           0.       
    6.98000n   -137.0712u   -105.5279n      0.           0.       
    6.99000n    -99.2078u    -72.8624n      0.           0.       
    7.00000n    -61.3443u    -40.1968n      0.           0.       
    7.01000n    -23.4808u     -7.5313n      0.           0.       
    7.02000n     14.3826u     25.1343n      0.           0.       
    7.03000n     52.2461u     57.7998n      0.           0.       
    7.04000n     90.1096u     90.4654n      0.           0.       
    7.05000n    127.9730u    123.1309n      0.           0.       
    7.06000n    165.8365u    155.7965n      0.           0.       
    7.07000n    203.7000u    188.4620n      0.           0.       
[...]
  163.49000n      0.       
  163.50000n      0.       
  163.51000n      0.       
  163.52000n      0.       
  163.53000n      0.       
  163.54000n      0.       
  163.55000n      0.       
  163.56000n      0.       
  163.57000n      0.       
  163.58000n      0.       
  163.59000n      0.       
  163.60000n      0.       
  163.61000n      0.       
  163.62000n      0.       
  163.63000n      0.       
  163.64000n      0.       
  163.65000n      0.       
  163.66000n      0.       
  163.67000n      0.       
  163.68000n      0.       
  163.69000n      0.       
  163.70000n      0.       
  163.71000n      0.       
  163.72000n      0.       
  163.73000n      0.       
  163.74000n      0.       
  163.75000n      0.       
  163.76000n      0.       
  163.77000n      0.       
  163.78000n      0.       
  163.79000n      0.       
  163.80000n      0.       
  163.81000n      0.       
  163.82000n      0.       
  163.83000n      0.       
  163.84000n      0.       
  163.85000n      0.       
  163.86000n      0.       
  163.87000n      0.       
  163.88000n      0.       
  163.89000n      0.       
  163.90000n      0.       
  163.91000n      0.       
  163.92000n      0.       
  163.93000n      0.       
  163.94000n      0.       
  163.95000n      0.       
  163.96000n      0.       
  163.97000n      0.       
  163.98000n      0.       
  163.99000n      0.       
  164.00000n      0.       
  164.01000n      0.       
  164.02000n      0.       
  164.03000n      0.       
  164.04000n      0.       
  164.05000n      0.       
  164.06000n      0.       
  164.07000n      0.       
  164.08000n      0.       
  164.09000n      0.       
  164.10000n      0.       
  164.11000n      0.       
  164.12000n      0.       
  164.13000n      0.       
  164.14000n      0.       
  164.15000n      0.       
  164.16000n      0.       
  164.17000n      0.       
  164.18000n      0.       
  164.19000n      0.       
  164.20000n      0.       
  164.21000n      0.       
  164.22000n      0.       
  164.23000n      0.       
  164.24000n      0.       
  164.25000n      0.       
  164.26000n      0.       
  164.27000n      0.       
  164.28000n      0.       
  164.29000n      0.       
  164.30000n      0.       
  164.31000n      0.       
  164.32000n      0.       
  164.33000n      0.       
  164.34000n      0.       
  164.35000n      0.       
  164.36000n      0.       
  164.37000n      0.       
  164.38000n      0.       
  164.39000n      0.       
  164.40000n      0.       
  164.41000n      0.       
  164.42000n      0.       
  164.43000n      0.       
  164.44000n      0.       
  164.45000n      0.       
  164.46000n      0.       
  164.47000n      0.       
  164.48000n      0.       
  164.49000n      0.       
  164.50000n      0.       
  164.51000n      0.       
  164.52000n      0.       
  164.53000n      0.       
  164.54000n      0.       
  164.55000n      0.       
  164.56000n      0.       
  164.57000n      0.       
  164.58000n      0.       
  164.59000n      0.       
  164.60000n      0.       
  164.61000n      0.       
  164.62000n      0.       
  164.63000n      0.       
  164.64000n      0.       
  164.65000n      0.       
  164.66000n      0.       
  164.67000n      0.       
  164.68000n      0.       
  164.69000n      0.       
  164.70000n      0.       
  164.71000n      0.       
  164.72000n      0.       
  164.73000n      0.       
  164.74000n      0.       
  164.75000n      0.       
  164.76000n      0.       
  164.77000n      0.       
  164.78000n      0.       
  164.79000n      0.       
  164.80000n      0.       
  164.81000n      0.       
  164.82000n      0.       
  164.83000n      0.       
  164.84000n      0.       
  164.85000n      0.       
  164.86000n      0.       
  164.87000n      0.       
  164.88000n      0.       
  164.89000n      0.       
  164.90000n      0.       
  164.91000n      0.       
  164.92000n      0.       
  164.93000n      0.       
  164.94000n      0.       
  164.95000n      0.       
  164.96000n      0.       
  164.97000n      0.       
  164.98000n      0.       
  164.99000n      0.       
  165.00000n      0.       
  165.01000n      0.       
  165.02000n      0.       
  165.03000n      0.       
  165.04000n      0.       
  165.05000n      0.       
  165.06000n      0.       
  165.07000n      0.       
  165.08000n      0.       
  165.09000n      0.       
  165.10000n      0.       
  165.11000n      0.       
  165.12000n      0.       
  165.13000n      0.       
  165.14000n      0.       
  165.15000n      0.       
  165.16000n      0.       
  165.17000n      0.       
  165.18000n      0.       
  165.19000n      0.       
  165.20000n      0.       
  165.21000n      0.       
  165.22000n      0.       
  165.23000n      0.       
  165.24000n      0.       
  165.25000n      0.       
  165.26000n      0.       
  165.27000n      0.       
  165.28000n      0.       
  165.29000n      0.       
  165.30000n      0.       
  165.31000n      0.       
  165.32000n      0.       
  165.33000n      0.       
  165.34000n      0.       
  165.35000n      0.       
  165.36000n      0.       
  165.37000n      0.       
  165.38000n      0.       
  165.39000n      0.       
  165.40000n      0.       
  165.41000n      0.       
  165.42000n      0.       
  165.43000n      0.       
  165.44000n      0.       
  165.45000n      0.       
  165.46000n      0.       
  165.47000n      0.       
  165.48000n      0.       
  165.49000n      0.       
  165.50000n      0.       
  165.51000n      0.       
  165.52000n      0.       
  165.53000n      0.       
  165.54000n      0.       
  165.55000n      0.       
  165.56000n      0.       
  165.57000n      0.       
  165.58000n      0.       
  165.59000n      0.       
  165.60000n      0.       
  165.61000n      0.       
  165.62000n      0.       
  165.63000n      0.       
  165.64000n      0.       
  165.65000n      0.       
  165.66000n      0.       
  165.67000n      0.       
  165.68000n      0.       
  165.69000n      0.       
  165.70000n      0.       
  165.71000n      0.       
  165.72000n      0.       
  165.73000n      0.       
  165.74000n      0.       
  165.75000n      0.       
  165.76000n      0.       
  165.77000n      0.       
  165.78000n      0.       
  165.79000n      0.       
  165.80000n      0.       
  165.81000n      0.       
  165.82000n      0.       
  165.83000n      0.       
  165.84000n      0.       
  165.85000n      0.       
  165.86000n      0.       
  165.87000n      0.       
  165.88000n      0.       
  165.89000n      0.       
  165.90000n      0.       
  165.91000n      0.       
  165.92000n      0.       
  165.93000n      0.       
  165.94000n      0.       
  165.95000n      0.       
  165.96000n      0.       
  165.97000n      0.       
  165.98000n      0.       
  165.99000n      0.       
  166.00000n      0.       
  166.01000n      0.       
  166.02000n      0.       
  166.03000n      0.       
  166.04000n      0.       
  166.05000n      0.       
  166.06000n      0.       
  166.07000n      0.       
  166.08000n      0.       
  166.09000n      0.       
  166.10000n      0.       
  166.11000n      0.       
  166.12000n      0.       
  166.13000n      0.       
  166.14000n      0.       
  166.15000n      0.       
  166.16000n      0.       
  166.17000n      0.       
  166.18000n      0.       
  166.19000n      0.       
  166.20000n      0.       
  166.21000n      0.       
  166.22000n      0.       
  166.23000n      0.       
  166.24000n      0.       
  166.25000n      0.       
  166.26000n      0.       
  166.27000n      0.       
  166.28000n      0.       
  166.29000n      0.       
  166.30000n      0.       
  166.31000n      0.       
  166.32000n      0.       
  166.33000n      0.       
  166.34000n      0.       
  166.35000n      0.       
  166.36000n      0.       
  166.37000n      0.       
  166.38000n      0.       
  166.39000n      0.       
  166.40000n      0.       
  166.41000n      0.       
  166.42000n      0.       
  166.43000n      0.       
  166.44000n      0.       
  166.45000n      0.       
  166.46000n      0.       
  166.47000n      0.       
  166.48000n      0.       
  166.49000n      0.       
  166.50000n      0.       
  166.51000n      0.       
  166.52000n      0.       
  166.53000n      0.       
  166.54000n      0.       
  166.55000n      0.       
  166.56000n      0.       
  166.57000n      0.       
  166.58000n      0.       
  166.59000n      0.       
  166.60000n      0.       
  166.61000n      0.       
  166.62000n      0.       
  166.63000n      0.       
  166.64000n      0.       
  166.65000n      0.       
  166.66000n      0.       
  166.67000n      0.       
  166.68000n      0.       
  166.69000n      0.       
  166.70000n      0.       
  166.71000n      0.       
  166.72000n      0.       
  166.73000n      0.       
  166.74000n      0.       
  166.75000n      0.       
  166.76000n      0.       
  166.77000n      0.       
  166.78000n      0.       
  166.79000n      0.       
  166.80000n      0.       
  166.81000n      0.       
  166.82000n      0.       
  166.83000n      0.       
  166.84000n      0.       
  166.85000n      0.       
  166.86000n      0.       
  166.87000n      0.       
  166.88000n      0.       
  166.89000n      0.       
  166.90000n      0.       
  166.91000n      0.       
  166.92000n      0.       
  166.93000n      0.       
  166.94000n      0.       
  166.95000n      0.       
  166.96000n      0.       
  166.97000n      0.       
  166.98000n      0.       
  166.99000n      0.       
  167.00000n      0.       
  167.01000n      0.       
  167.02000n      0.       
  167.03000n      0.       
  167.04000n      0.       
  167.05000n      0.       
  167.06000n      0.       
  167.07000n      0.       
  167.08000n      0.       
  167.09000n      0.       
  167.10000n      0.       
  167.11000n      0.       
  167.12000n      0.       
  167.13000n      0.       
  167.14000n      0.       
  167.15000n      0.       
  167.16000n      0.       
  167.17000n      0.       
  167.18000n      0.       
  167.19000n      0.       
  167.20000n      0.       
  167.21000n      0.       
  167.22000n      0.       
  167.23000n      0.       
  167.24000n      0.       
  167.25000n      0.       
  167.26000n      0.       
  167.27000n      0.       
  167.28000n      0.       
  167.29000n      0.       
  167.30000n      0.       
  167.31000n      0.       
  167.32000n      0.       
  167.33000n      0.       
  167.34000n      0.       
  167.35000n      0.       
  167.36000n      0.       
  167.37000n      0.       
  167.38000n      0.       
  167.39000n      0.       
  167.40000n      0.       
  167.41000n      0.       
  167.42000n      0.       
  167.43000n      0.       
  167.44000n      0.       
  167.45000n      0.       
  167.46000n      0.       
  167.47000n      0.       
  167.48000n      0.       
  167.49000n      0.       
  167.50000n      0.       
  167.51000n      0.       
  167.52000n      0.       
  167.53000n      0.       
  167.54000n      0.       
  167.55000n      0.       
  167.56000n      0.       
  167.57000n      0.       
  167.58000n      0.       
  167.59000n      0.       
  167.60000n      0.       
  167.61000n      0.       
  167.62000n      0.       
  167.63000n      0.       
  167.64000n      0.       
  167.65000n      0.       
  167.66000n      0.       
  167.67000n      0.       
  167.68000n      0.       
  167.69000n      0.       
  167.70000n      0.       
  167.71000n      0.       
  167.72000n      0.       
  167.73000n      0.       
  167.74000n      0.       
  167.75000n      0.       
  167.76000n      0.       
  167.77000n      0.       
  167.78000n      0.       
  167.79000n      0.       
  167.80000n      0.       
  167.81000n      0.       
  167.82000n      0.       
  167.83000n      0.       
  167.84000n      0.       
  167.85000n      0.       
  167.86000n      0.       
  167.87000n      0.       
  167.88000n      0.       
  167.89000n      0.       
  167.90000n      0.       
  167.91000n      0.       
  167.92000n      0.       
  167.93000n      0.       
  167.94000n      0.       
  167.95000n      0.       
  167.96000n      0.       
  167.97000n      0.       
  167.98000n      0.       
  167.99000n      0.       
  168.00000n      0.       
  168.01000n      0.       
  168.02000n      0.       
  168.03000n      0.       
  168.04000n      0.       
  168.05000n      0.       
  168.06000n      0.       
  168.07000n      0.       
  168.08000n      0.       
  168.09000n      0.       
  168.10000n      0.       
  168.11000n      0.       
  168.12000n      0.       
  168.13000n      0.       
  168.14000n      0.       
  168.15000n      0.       
  168.16000n      0.       
  168.17000n      0.       
  168.18000n      0.       
  168.19000n      0.       
  168.20000n      0.       
  168.21000n      0.       
  168.22000n      0.       
  168.23000n      0.       
  168.24000n      0.       
  168.25000n      0.       
  168.26000n      0.       
  168.27000n      0.       
  168.28000n      0.       
  168.29000n      0.       
  168.30000n      0.       
  168.31000n      0.       
  168.32000n      0.       
  168.33000n      0.       
  168.34000n      0.       
  168.35000n      0.       
  168.36000n      0.       
  168.37000n      0.       
  168.38000n      0.       
  168.39000n      0.       
  168.40000n      0.       
  168.41000n      0.       
  168.42000n      0.       
  168.43000n      0.       
  168.44000n      0.       
  168.45000n      0.       
  168.46000n      0.       
  168.47000n      0.       
  168.48000n      0.       
  168.49000n      0.       
  168.50000n      0.       
  168.51000n      0.       
  168.52000n      0.       
  168.53000n      0.       
  168.54000n      0.       
  168.55000n      0.       
  168.56000n      0.       
  168.57000n      0.       
  168.58000n      0.       
  168.59000n      0.       
  168.60000n      0.       
  168.61000n      0.       
  168.62000n      0.       
  168.63000n      0.       
  168.64000n      0.       
  168.65000n      0.       
  168.66000n      0.       
  168.67000n      0.       
  168.68000n      0.       
  168.69000n      0.       
  168.70000n      0.       
  168.71000n      0.       
  168.72000n      0.       
  168.73000n      0.       
  168.74000n      0.       
  168.75000n      0.       
  168.76000n      0.       
  168.77000n      0.       
  168.78000n      0.       
  168.79000n      0.       
  168.80000n      0.       
  168.81000n      0.       
  168.82000n      0.       
  168.83000n      0.       
  168.84000n      0.       
  168.85000n      0.       
  168.86000n      0.       
  168.87000n      0.       
  168.88000n      0.       
  168.89000n      0.       
  168.90000n      0.       
  168.91000n      0.       
  168.92000n      0.       
  168.93000n      0.       
  168.94000n      0.       
  168.95000n      0.       
  168.96000n      0.       
  168.97000n      0.       
  168.98000n      0.       
  168.99000n      0.       
  169.00000n      0.       
  169.01000n      0.       
  169.02000n      0.       
  169.03000n      0.       
  169.04000n      0.       
  169.05000n      0.       
  169.06000n      0.       
  169.07000n      0.       
  169.08000n      0.       
  169.09000n      0.       
  169.10000n      0.       
  169.11000n      0.       
  169.12000n      0.       
  169.13000n      0.       
  169.14000n      0.       
  169.15000n      0.       
  169.16000n      0.       
  169.17000n      0.       
  169.18000n      0.       
  169.19000n      0.       
  169.20000n      0.       
  169.21000n      0.       
  169.22000n      0.       
  169.23000n      0.       
  169.24000n      0.       
  169.25000n      0.       
  169.26000n      0.       
  169.27000n      0.       
  169.28000n      0.       
  169.29000n      0.       
  169.30000n      0.       
  169.31000n      0.       
  169.32000n      0.       
  169.33000n      0.       
  169.34000n      0.       
  169.35000n      0.       
  169.36000n      0.       
  169.37000n      0.       
  169.38000n      0.       
  169.39000n      0.       
  169.40000n      0.       
  169.41000n      0.       
  169.42000n      0.       
  169.43000n      0.       
  169.44000n      0.       
  169.45000n      0.       
  169.46000n      0.       
  169.47000n      0.       
  169.48000n      0.       
  169.49000n      0.       
  169.50000n      0.       
  169.51000n      0.       
  169.52000n      0.       
  169.53000n      0.       
  169.54000n      0.       
  169.55000n      0.       
  169.56000n      0.       
  169.57000n      0.       
  169.58000n      0.       
  169.59000n      0.       
  169.60000n      0.       
  169.61000n      0.       
  169.62000n      0.       
  169.63000n      0.       
  169.64000n      0.       
  169.65000n      0.       
  169.66000n      0.       
  169.67000n      0.       
  169.68000n      0.       
  169.69000n      0.       
  169.70000n      0.       
  169.71000n      0.       
  169.72000n      0.       
  169.73000n      0.       
  169.74000n      0.       
  169.75000n      0.       
  169.76000n      0.       
  169.77000n      0.       
  169.78000n      0.       
  169.79000n      0.       
  169.80000n      0.       
  169.81000n      0.       
  169.82000n      0.       
  169.83000n      0.       
  169.84000n      0.       
  169.85000n      0.       
  169.86000n      0.       
  169.87000n      0.       
  169.88000n      0.       
  169.89000n      0.       
  169.90000n      0.       
  169.91000n      0.       
  169.92000n      0.       
  169.93000n      0.       
  169.94000n      0.       
  169.95000n      0.       
  169.96000n      0.       
  169.97000n      0.       
  169.98000n      0.       
  169.99000n      0.       
  170.00000n      0.       
y

          ***** job concluded
1****** HSPICE -- D-2010.03-SP1 32-BIT (May 26 2010) winnt ******               
 ******  
 first line of the netlist must be blank.

  ******  job statistics summary tnom=  25.000 temp=   0.000 *****

  ******  HSPICE Threads Information  ******

  Command Line Threads Count                  :     1
  Available CPU Count                         :     4
  Actual Model Evaluation(Load) Threads Count :     1
  Actual Solver Threads Count                 :     1


  ******  Circuit Statistics  ******
  # nodes       =      65 # elements   =      28
  # resistors   =       0 # capacitors =       0 # inductors   =       0
  # mutual_inds =       0 # vccs       =       0 # vcvs        =       0
  # cccs        =       0 # ccvs       =       0 # volt_srcs   =       4
  # curr_srcs   =       0 # diodes     =       0 # bjts        =       0
  # jfets       =       0 # mosfets    =      24 # U elements  =       0
  # T elements  =       0 # W elements =       0 # B elements  =       0
  # S elements  =       0 # P elements =       0 # va device   =       0


  ******  Runtime Statistics (seconds)  ******

  analysis           time    # points   tot. iter  conv.iter
  op point           0.01           1          21
  transient          0.36       17001        4672        1577 rev=        77
  readin             0.11
  errchk             0.02
  setup              0.01
  output             0.07


           total memory used          515  kbytes
           total cpu time            0.60 seconds
           total elapsed time        0.64 seconds
           job started at     10:16:30 12/02/2014
           job ended   at     10:16:31 12/02/2014


  lic: Release hspice token(s) 
