 ****** HSPICE -- D-2010.03-SP1 32-BIT (May 26 2010) winnt ******               
  Copyright (C) 2010 Synopsys, Inc. All Rights Reserved.                        
  Unpublished-rights reserved under US copyright laws.
  This program is protected by law and is subject to the 
  terms and conditions of the license agreement from Synopsys.
  Use of this program is your acceptance to be bound by the 
  license agreement. HSPICE is the trademark of Synopsys, Inc.
  Input File: d:\digital electronic\projects\ca_2\full_adder_tpd_temp_room\tpd_t
  lic:  
  lic: FLEXlm: v8.5b 
  lic: USER:   HP                   HOSTNAME: ProBook 
  lic: HOSTID: "00090faa0001 56db30007c95 16db30007c95 a4db30007c95 a45d36cb5ab9
  
  lic: Using FLEXlm license file: 
  lic: 27000@elena 
  lic: Checkout 1 hspice 
  lic: License/Maintenance for hspice will expire on 31-dec-2020/2007.9 
  lic: NODE LOCKED license on hostid "00090faa0001 56db30007c95 16db30007c95 a4d
 b
  lic:   
 Init: read install configuration file: C:\synopsys\Hspice_D-2010.03-SP1\meta.cfg
1****** HSPICE -- D-2010.03-SP1 32-BIT (May 26 2010) winnt ******               
 ******  
 first line of the netlist must be blank.

  ******  circuit name directory
 circuit number to circuit name directory
   number circuitname                     definition         multiplier
        0 main circuit
        1 x_cout.                         inverter           1.00 
        2 x_sum.                          inverter           1.00 
  **info** (d:\digital electronic\projects\ca_2\full_adder_tpd_temp_room\tpd_temp_room.sp:79) DC voltage reset to initial transient source value              in source        0:vina                new dc=  0.0000D+00
 ***************************************************************************
 ***        model parameters  model name:   0:pmos.6   model type:pmos   ***
 ***************************************************************************

   *** general parameters ***
    deriv=   0.           

   ***  level 49  model parameters  ***

       hspver=    2006.03               level=         49         
      version=        3.1            paramchk=          0         
       apwarn=          1                lite=          0         
       vgslim=          0             binUnit=          2         
       capMod=          0               xpart=          1         
       mobMod=          1              nqsMod=          0         
       stiMod=          0                 elm=          5         
     sfvtflag=          0                 tox=  4.08e-009 meter   
           xj=   1.7e-007 meter       binflag=          0         
         lmin=   1.8e-007 meter          lmax=     5e-007 meter   
         wmin=   1.3e-006 meter          wmax=  1.01e-005 meter   
         lref=          0 meter          wref=          0 meter   
         lint=   1.5e-008 meter          wint=   1.5e-008 meter   
        lmult=          1               wmult=          1         
           ll=          0                 lln=          1         
           lw=          0                 lwn=          1         
          lwl=          0                  wl=          0         
          wln=          1                  ww=          0         
          wwn=          1                 wwl=          0         
          dwg=          0 m/V             dwb=          0 m/V^1/2 
           xl=    -2e-008                  xw=          0         
           a0=    1.27343                 ags=       0.02 V^-1    
           b0=          0 meter            b1=          0 meter   
         keta=  0.0150006 V^-1           voff=  -0.130818 V       
        ngate=          0 cm^-3           vbx=          0 V       
          vbm=         -3 V                xt=  1.55e-007 meter   
         vth0=  -0.449372 V               nch=   3.9e+017 cm^-3   
         nsub=     6e+016 cm^-3           nlx=          0 meter   
       gamma1=          0 V^-1/2       gamma2=          0 V^-1/2  
           k1=   0.517892 V^1/2            k2=  0.0428098         
           k3=          0                 k3b=          0 V^-1    
           w0=          0 meter          dvt0=          0         
         dvt1=          0                dvt2=          0 V^-1    
        dvt0w=          0 meter^-1      dvt1w=          0 meter^-1
        dvt2w=          0 V^-1           dsub=          0         
         eta0=-0.00046875                etab= 0.00113675 V^-1    
           u0=  0.0098319 m^2/V/sec         ua=9.4993e-010 m/V     
           ub=4.95858e-019 (m/V)^2          uc=-1.5879e-010 V^-1    
         vsat=     130813 m/sec            a1=          0 v^-1    
           a2=        0.4               delta=       0.01 V       
         rdsw=        530 ohm-um         prwg=          0 V^-1    
         prwb=          0 V^-1/2           wr=          1         
         pclm=    0.91154             pdiblc1=     1e-006         
      pdiblc2= 0.00796875             pdiblcb=       0.01 V^-1    
       pscbe1=   3.5e+008 V/m          pscbe2=     5e-007 V/m     
        drout=          0                pvag=          0         
      nfactor=          1                cdsc=          0 f/m^2   
        cdscb=          0 f/V/m^2       cdscd=          0 f/V/m^2 
          cit=-6.28086e-005 f/m^2        alpha0=8.93496e-007 m/V     
        beta0=    22.6783 V               dlc=     2e-009 meter   
          dwc=   1.5e-008 meter           clc=     1e-007 meter   
          cle=        0.6                cgso=  3.28e-010 f/m     
         cgdo=  3.28e-010 f/m            cgbo=2.53907e-010 f/m     
         cgsl=          0 f/m            cgdl=          0 f/m     
       ckappa=        0.6                  cf=          0 f/m     
      vfbflag=          1               vfbcv=           Vfb      
         tnom=     298.15 K               kt1=   -0.23689 V       
         kt1l=          0                 kt2=   -0.02568         
          ute=  -0.721369                 ua1= 1.224e-009 m/V     
          ub1=-1.35253e-018 (m/V)^2         uc1=7.19149e-011 m/V^2   
           at=      10000 m/s             prt=          0         
          using Hspice noise model           nlev=          3         
           af=      1.252                  kf= 9.267e-024         
       gdsnoi=-1.23457e-029         
          using Berkeley diodes          using ACM 
          acm=        12                 hdif=    2e-007 meter    
         ldif=    9e-008 meter             js= 4.92e-006 amp/m^2  
          jsw=    9e-010 amp/m            xti=         3          
           nj=         1                   cj=  0.001121 f/m^2    
           mj=    0.4476                   pb=  0.895226 V        
         cjsw=2.481e-010 f/m             mjsw=  0.368362          
          php (not used)                  pbsw=  0.895226 V        
       cjgate (not used)                 cjswg=4.221e-010 f/m      
        mjswg=  0.368362                pbswg=  0.895226 V        
          la0=3.36969e-009               lketa=-5.83136e-010         
        lvoff=1.55427e-010               lvth0=-8.06576e-009         
          lk1=1.88712e-008                 lk2=-6.75856e-009         
        leta0=2.55938e-010               letab=-5.56539e-010         
          lu0=-1.29165e-010                 lua=-1.785e-016         
          lub=1.37311e-025                 luc=1.95859e-017         
        lvsat=-0.000365624               lpclm=3.9807e-008         
     lpdiblc2=9.14062e-010                lcit=1.18189e-010         
         lkt1=-2.46349e-009                lkt2=-7.62232e-011         
         lute=5.38701e-010                lub1=2.54921e-026         
         luc1=-7.86928e-018                 wa0=-5.00174e-007         
        wketa=8.66115e-009               wvoff=5.51816e-009         
        wvth0=1.06796e-008                 wk1=1.44513e-007         
          wk2=-5.28371e-008               wetab=-5.90396e-010         
          wu0=-2.92769e-009                 wua=-7.67988e-016         
          wub=4.3796e-025                 wuc=2.92279e-017         
        wpclm=-1.31009e-008                wcit=2.21978e-010         
         wkt1=2.01412e-008                wkt2=8.08905e-009         
         wute=1.23065e-007                wub1=-2.57544e-025         
         wuc1=-4.96378e-017                 pa0=1.27884e-013         
        pketa=-2.4688e-015               pvoff=-1.90571e-015         
        pvth0=-1.7426e-015                 pk1=-2.05709e-014         
          pk2=8.79696e-015               petab=2.65679e-016         
          pu0=3.01257e-016                 pua=1.84541e-022         
          pub=-1.52856e-031                 puc=-1.08196e-023         
        ppclm=5.8954e-015                pcit=-8.55422e-017         
         pkt1=-2.00901e-015                pkt2=-1.55865e-015         
         pute=1.05946e-014                pub1=3.33784e-032         
         puc1=1.01945e-023         
 ***************************************************************************
 ***        model parameters  model name:   0:nmos.12  model type:nmos   ***
 ***************************************************************************

   *** general parameters ***
    deriv=   0.           

   ***  level 49  model parameters  ***

       hspver=    2006.03               level=         49         
      version=        3.1            paramchk=          0         
       apwarn=          1                lite=          0         
       vgslim=          0             binUnit=          2         
       capMod=          0               xpart=          1         
       mobMod=          1              nqsMod=          0         
       stiMod=          0                 elm=          5         
     sfvtflag=          0                 tox=  4.08e-009 meter   
           xj=   1.6e-007 meter       binflag=          0         
         lmin=   1.8e-007 meter          lmax=     5e-007 meter   
         wmin=   2.2e-007 meter          wmax=     6e-007 meter   
         lref=          0 meter          wref=          0 meter   
         lint=     1e-008 meter          wint=     1e-008 meter   
        lmult=          1               wmult=          1         
           ll=          0                 lln=          1         
           lw=          0                 lwn=          1         
          lwl=          0                  wl=          0         
          wln=          1                  ww=          0         
          wwn=          1                 wwl=          0         
          dwg=          0 m/V             dwb=          0 m/V^1/2 
           xl=    -2e-008                  xw=          0         
           a0=   0.309139                 ags=  0.0533449 V^-1    
           b0=          0 meter            b1=          0 meter   
         keta= -0.0298329 V^-1           voff=  -0.118294 V       
        ngate=          0 cm^-3           vbx=          0 V       
          vbm=         -3 V                xt=  1.55e-007 meter   
         vth0=   0.473666 V               nch=   3.9e+017 cm^-3   
         nsub=     6e+016 cm^-3           nlx=          0 meter   
       gamma1=          0 V^-1/2       gamma2=          0 V^-1/2  
           k1=   0.491632 V^1/2            k2=  0.0241211         
           k3=          0                 k3b=          0 V^-1    
           w0=          0 meter          dvt0=          0         
         dvt1=          0                dvt2=          0 V^-1    
        dvt0w=          0 meter^-1      dvt1w=          0 meter^-1
        dvt2w=          0 V^-1           dsub=          0         
         eta0=-0.000262195                etab= 0.00134878 V^-1    
           u0=  0.0372746 m^2/V/sec         ua=-6.55196e-010 m/V     
           ub=2.11511e-018 (m/V)^2          uc=1.21054e-010 V^-1    
         vsat=    85478.7 m/sec            a1=          0 v^-1    
           a2=       0.99               delta=       0.01 V       
         rdsw=        170 ohm-um         prwg=          0 V^-1    
         prwb=          0 V^-1/2           wr=          1         
         pclm=    1.15192             pdiblc1=     1e-006         
      pdiblc2=-0.00702563             pdiblcb=       0.01 V^-1    
       pscbe1=     4e+008 V/m          pscbe2=     1e-006 V/m     
        drout=          0                pvag=          0         
      nfactor=          1                cdsc=          0 f/m^2   
        cdscb=          0 f/V/m^2       cdscd=          0 f/V/m^2 
          cit=0.000291019 f/m^2        alpha0=6.27411e-008 m/V     
        beta0=    11.5926 V               dlc=     3e-009 meter   
          dwc=     1e-008 meter           clc=     1e-007 meter   
          cle=        0.6                cgso= 3.665e-010 f/m     
         cgdo= 3.665e-010 f/m            cgbo=1.69271e-010 f/m     
         cgsl=          0 f/m            cgdl=          0 f/m     
       ckappa=        0.6                  cf=          0 f/m     
      vfbflag=          1               vfbcv=           Vfb      
         tnom=     298.15 K               kt1=  -0.195646 V       
         kt1l=          0                 kt2=  -0.039081         
          ute=   -1.94466                 ua1= 1.224e-009 m/V     
          ub1=-3.08156e-018 (m/V)^2         uc1=-2.39274e-010 m/V^2   
           at=      20000 m/s             prt=          0         
          using Hspice noise model           nlev=          3         
           af=     0.8256                  kf= 9.326e-025         
       gdsnoi=-1.23457e-029         
          using Berkeley diodes          using ACM 
          acm=        12                 hdif=    2e-007 meter    
         ldif=    9e-008 meter             js= 8.38e-006 amp/m^2  
          jsw=  1.6e-011 amp/m            xti=         3          
           nj=         1                   cj=0.00100027 f/m^2    
           mj=  0.359526                   pb=  0.688268 V        
         cjsw=2.04055e-010 f/m             mjsw=  0.200388          
          php (not used)                  pbsw=  0.688268 V        
       cjgate (not used)                 cjswg=3.34055e-010 f/m      
        mjswg=   0.43879                pbswg=  0.688268 V        
          la0=1.06621e-007                lags=-1.53387e-008         
        lketa=4.61416e-010               lvoff=-3.96108e-009         
        lvth0=5.11682e-009                 lk1=3.30818e-008         
          lk2=-1.52713e-008               leta0=1.6661e-010         
        letab=-6.66439e-010                 lu0=1.59926e-009         
          lua=2.34123e-017                 lub=-8.56068e-026         
          luc=-1.54502e-017               lvsat=-0.00020462         
        lpclm=7.12344e-008            lpdiblc2=5.54738e-009         
         lcit=9.61312e-011                lkt1=-2.85002e-011         
         lkt2=1.8665e-009                lute=4.8145e-008         
         lub1=3.21842e-025                luc1= 5.554e-017         
          wa0=2.62937e-007                wags=-1.00035e-008         
        wketa=4.19031e-009               wvoff=-3.62118e-010         
        wvth0=-2.54604e-009                 wk1=-1.81486e-008         
          wk2=4.13368e-009                 wu0=1.17336e-009         
          wua=4.27813e-017                 wub=-1.03025e-025         
          wuc=-2.88731e-017               wvsat=0.000535754         
        wpclm=1.12421e-007            wpdiblc2=7.8584e-010         
         wcit=-2.50083e-012                wkt1=-1.85501e-008         
         wkt2=2.04501e-009                wute=1.32891e-008         
         wub1=1.45513e-025                wuc1=4.98122e-017         
          pa0=-8.2896e-014                pags=4.6016e-015         
        pketa=-1.78076e-016               pvoff=-4.51263e-016         
        pvth0=7.78622e-016                 pk1=4.16607e-015         
          pk2=-2.21999e-015                 pu0=-1.56466e-017         
          pua=-2.17339e-023                 pub=2.32296e-032         
          puc=3.11796e-024               pvsat=1.1309e-011         
        ppclm=-1.62572e-016            ppdiblc2=-1.03731e-016         
         pcit=1.1504e-018                pkt1=3.11964e-015         
         pkt2=-7.72415e-017                pute=-6.113e-015         
         pub1=-2.88913e-032                puc1=-1.05423e-023         
 ***************************************************************************
 ***        model parameters  model name:   0:pmos.12  model type:pmos   ***
 ***************************************************************************

   *** general parameters ***
    deriv=   0.           

   ***  level 49  model parameters  ***

       hspver=    2006.03               level=         49         
      version=        3.1            paramchk=          0         
       apwarn=          1                lite=          0         
       vgslim=          0             binUnit=          2         
       capMod=          0               xpart=          1         
       mobMod=          1              nqsMod=          0         
       stiMod=          0                 elm=          5         
     sfvtflag=          0                 tox=  4.08e-009 meter   
           xj=   1.7e-007 meter       binflag=          0         
         lmin=   1.8e-007 meter          lmax=     5e-007 meter   
         wmin=   2.2e-007 meter          wmax=     6e-007 meter   
         lref=          0 meter          wref=          0 meter   
         lint=   1.5e-008 meter          wint=   1.5e-008 meter   
        lmult=          1               wmult=          1         
           ll=          0                 lln=          1         
           lw=          0                 lwn=          1         
          lwl=          0                  wl=          0         
          wln=          1                  ww=          0         
          wwn=          1                 wwl=          0         
          dwg=          0 m/V             dwb=          0 m/V^1/2 
           xl=    -2e-008                  xw=          0         
           a0=    1.42473                 ags=    0.03625 V^-1    
           b0=          0 meter            b1=          0 meter   
         keta=   0.031312 V^-1           voff=  -0.128164 V       
        ngate=          0 cm^-3           vbx=          0 V       
          vbm=         -3 V                xt=  1.55e-007 meter   
         vth0=  -0.463924 V               nch=   3.9e+017 cm^-3   
         nsub=     6e+016 cm^-3           nlx=          0 meter   
       gamma1=          0 V^-1/2       gamma2=          0 V^-1/2  
           k1=   0.466995 V^1/2            k2=  0.0588639         
           k3=          0                 k3b=          0 V^-1    
           w0=          0 meter          dvt0=          0         
         dvt1=          0                dvt2=          0 V^-1    
        dvt0w=          0 meter^-1      dvt1w=          0 meter^-1
        dvt2w=          0 V^-1           dsub=          0         
         eta0=-0.00046875                etab=0.000671875 V^-1    
           u0=  0.0106032 m^2/V/sec         ua=1.95012e-009 m/V     
           ub=-4.60397e-019 (m/V)^2          uc=-2.79142e-010 V^-1    
         vsat=     130813 m/sec            a1=          0 v^-1    
           a2=        0.4               delta=       0.01 V       
         rdsw=        530 ohm-um         prwg=          0 V^-1    
         prwb=          0 V^-1/2           wr=          1         
         pclm=   0.965731             pdiblc1=     1e-006         
      pdiblc2=  0.0059375             pdiblcb=       0.01 V^-1    
       pscbe1=   3.5e+008 V/m          pscbe2=     5e-007 V/m     
        drout=          0                pvag=          0         
      nfactor=          1                cdsc=          0 f/m^2   
        cdscb=          0 f/V/m^2       cdscd=          0 f/V/m^2 
          cit=8.53438e-005 f/m^2        alpha0=8.93496e-007 m/V     
        beta0=    22.6783 V               dlc=     2e-009 meter   
          dwc=   1.5e-008 meter           clc=     1e-007 meter   
          cle=        0.6                cgso=  3.28e-010 f/m     
         cgdo=  3.28e-010 f/m            cgbo=2.53907e-010 f/m     
         cgsl=          0 f/m            cgdl=          0 f/m     
       ckappa=        0.6                  cf=          0 f/m     
      vfbflag=          1               vfbcv=           Vfb      
         tnom=     298.15 K               kt1=  -0.213807 V       
         kt1l=          0                 kt2= -0.0350727         
          ute=  -0.599398                 ua1= 1.224e-009 m/V     
          ub1=-1.44385e-018 (m/V)^2         uc1=1.97007e-010 m/V^2   
           at=      10000 m/s             prt=          0         
          using Hspice noise model           nlev=          3         
           af=      1.252                  kf= 9.267e-024         
       gdsnoi=-1.23457e-029         
          using Berkeley diodes          using ACM 
          acm=        12                 hdif=    2e-007 meter    
         ldif=    9e-008 meter             js= 4.92e-006 amp/m^2  
          jsw=    9e-010 amp/m            xti=         3          
           nj=         1                   cj=  0.001121 f/m^2    
           mj=    0.4476                   pb=  0.895226 V        
         cjsw=2.481e-010 f/m             mjsw=  0.368362          
          php (not used)                  pbsw=  0.895226 V        
       cjgate (not used)                 cjswg=4.221e-010 f/m      
        mjswg=  0.368362                pbswg=  0.895226 V        
          la0=6.05288e-009                lags=-7.3125e-009         
        lketa=-5.16184e-009               lvoff=-5.91609e-009         
        lvth0=5.38107e-010                 lk1=1.45905e-008         
          lk2=-3.556e-009               leta0=2.55938e-010         
        letab=-3.47344e-010                 lu0=-3.30242e-010         
          lua=-2.51766e-016                 lub=2.48836e-025         
          luc=3.17066e-017               lvsat=-0.000365626         
        lpclm=1.54212e-008            lpdiblc2=1.82813e-009         
         lcit=5.42953e-011                lkt1=-2.11408e-009         
         lkt2=2.67095e-009                lute= -5.86e-010         
         lub1=-1.13609e-026                luc1=-2.35622e-017         
          wa0=3.5728e-008               wketa=-1.25751e-009         
        wvoff=2.48258e-009               wvth0=8.41494e-009         
          wk1=8.05894e-009                 wk2=-3.77675e-009         
          wu0=-8.74775e-010                 wua=-4.01758e-016         
          wub=1.33977e-025                 wuc=5.52361e-018         
        wpclm=4.02174e-009                wkt1=-3.18668e-009         
         wkt2=3.65278e-009                wute=-4.50547e-008         
         wub1=-2.01983e-027                wuc1=-3.10897e-017         
          pa0=-5.26953e-015               pketa=6.47119e-016         
        pvoff=1.26195e-015               pvth0=-2.69537e-015         
          pk1=3.57783e-015                 pk2=-2.00502e-015         
          pu0=1.17808e-016                 pua=5.47148e-023         
          pub=-6.52837e-032                 puc=-7.6012e-024         
        ppclm=-1.80978e-015                pkt1=-8.46899e-016         
         pkt2=-9.23643e-016                pute=5.17958e-015         
         pub1=1.65815e-032                puc1=5.34039e-024         
 

 
      
 **info** set option symb=1 internally to help for convergence.
 *****************************************************************
 ******  option summary
 ******
 runlvl  = 3         bypass  = 2         
  Opening plot unit= 79
 file=d:\digital electronic\projects\ca_2\full_adder_tpd_temp_room\tpd_temp_roo

1****** HSPICE -- D-2010.03-SP1 32-BIT (May 26 2010) winnt ******               
 ******  
 first line of the netlist must be blank.

  ******  operating point information tnom=  25.000 temp=  25.000 *****
 ***** operating point status is all       simulation time is     0.     
    node    =voltage      node    =voltage      node    =voltage

 +0:a       =   0.      0:b       =   0.      0:cin     =   0.     
 +0:cout    =  11.1881n 0:cout_bar=   1.8000  0:drain_n_=  44.5283m
 +0:drain_n_=  44.5284m 0:drain_n_=   1.4520  0:drain_n_=  34.8273n
 +0:drain_p_=   1.8000  0:drain_p_=   1.8000  0:drain_p_=   1.8000 
 +0:drain_p_=   1.8000  0:sum     =  11.1881n 0:sum_bar =   1.8000 
 +0:vdd     =   1.8000 


 ****  voltage sources

 subckt                                              
 element  0:v1       0:vina     0:vinb     0:vinc    
  volts      1.8000     0.         0.         0.     
  current  -77.8961p    0.         0.         0.     
  power    140.2131p    0.         0.         0.     

     total voltage source power dissipation=  140.2131p       watts




 **** mosfets


 subckt                                                                    
 element  0:m_p11    0:m_p12    0:m_p13    0:m_p14    0:m_p1     0:m_p2    
 model    0:pmos.6   0:pmos.6   0:pmos.6   0:pmos.6   0:pmos.6   0:pmos.6  
 region       Linear     Linear     Linear     Cutoff     Linear     Linear
  id        -6.3635p   -6.3635p  -54.4942p   -7.0948a   15.8768a  -54.4945p
  ibs      8.372e-25  8.372e-25  7.170e-24    0.       1.494e-21  1.280e-20
  ibd      1.493e-21  1.493e-21  1.278e-20  2.558e-20  1.494e-21  2.557e-20
  vgs       -1.8000    -1.8000    -1.8000   -24.7690n   -1.8000    -1.8000 
  vds      -12.3844n  -12.3843n -106.0547n -212.1099n   31.0862f -106.0551n
  vbs        0.         0.         0.         0.        12.3844n  106.0547n
  vth     -513.5288m -513.5288m -513.5288m -513.5288m -513.5288m -513.5288m
  vdsat   -720.5395m -720.5395m -720.5395m  -40.6506m -720.5395m -720.5394m
  vod       -1.2865    -1.2865    -1.2865   513.5288m   -1.2865    -1.2865 
  beta     515.9711u  515.9711u  515.9711u  648.8652u  515.9711u  515.9711u
  gam eff  648.0477m  648.0477m  648.0477m  648.0477m  648.0477m  648.0477m
  gm         2.8632p    2.8632p   24.5194p  214.5170a    7.1437a   24.5195p
  gds      514.4081u  514.4081u  514.4081u   33.4487p  514.4081u  514.4080u
  gmb        1.8389p    1.8389p   15.7475p   83.3071a    4.5880a   15.7476p
  cdtot      3.6348f    3.6348f    3.6348f    2.0929f    3.7534f    3.6348f
  cgtot      2.5891f    2.5891f    2.5891f    1.4168f    2.5891f    2.5891f
  cstot      3.7534f    3.7534f    3.7534f    2.0929f    3.6348f    3.7534f
  cbtot      3.9690f    3.9690f    3.9690f    3.9102f    3.9690f    3.9690f
  cgs        1.2747f    1.2747f    1.2747f  423.1200a    1.2747f    1.2747f
  cgd        1.2747f    1.2747f    1.2747f  423.1200a    1.2747f    1.2747f



 subckt                                                                    
 element  0:m_p21    0:m_p22    0:m_p23    0:m_p24    0:m_n11    0:m_n12   
 model    0:pmos.6   0:pmos.6   0:pmos.6   0:pmos.6   0:nmos.12  0:nmos.12 
 region       Linear     Linear     Cutoff     Linear     Cutoff     Cutoff
  id        -6.3636p   -6.3636p   -7.0948a  -54.4949p    4.3823p    4.3823p
  ibs      1.494e-21  1.494e-21  1.279e-20  2.559e-20 -1.510e-26 -1.510e-26
  ibd      2.986e-21  2.986e-21  3.837e-20  3.837e-20  -23.3439a  -23.3439a
  vgs       -1.8000    -1.8000    81.2857n   -1.8000     0.         0.     
  vds      -12.3847n  -12.3847n -212.1112n -106.0561n   44.5283m   44.5284m
  vbs       12.3844n   12.3843n  106.0547n  212.1099n    0.         0.     
  vth     -513.5288m -513.5288m -513.5288m -513.5289m  517.2704m  517.2704m
  vdsat   -720.5395m -720.5395m  -40.6506m -720.5394m   43.9560m   43.9560m
  vod       -1.2865    -1.2865   513.5289m   -1.2865  -517.2704m -517.2704m
  beta     515.9711u  515.9711u  648.8652u  515.9711u    1.4220m    1.4220m
  gam eff  648.0477m  648.0477m  648.0477m  648.0477m  968.2416m  968.2416m
  gm         2.8633p    2.8633p  214.5174a   24.5197p  126.7501p  126.7501p
  gds      514.4081u  514.4081u   33.4485p  514.4080u   38.7570p   38.7570p
  gmb        1.8389p    1.8389p   83.3073a   15.7477p   40.7133p   40.7133p
  cdtot      3.6348f    3.6348f    2.0929f    3.6348f  716.4488a  716.4488a
  cgtot      2.5891f    2.5891f    1.4168f    2.5891f  520.8064a  520.8064a
  cstot      3.7534f    3.7534f    2.0929f    3.7534f  727.3887a  727.3887a
  cbtot      3.9690f    3.9690f    3.9102f    3.9690f    1.3489f    1.3489f
  cgs        1.2747f    1.2747f  423.1200a    1.2747f  153.9300a  153.9300a
  cgd        1.2747f    1.2747f  423.1200a    1.2747f  153.9300a  153.9300a



 subckt                                                                    
 element  0:m_n13    0:m_n14    0:m_n1     0:m_n2     0:m_n21    0:m_n22   
 model    0:nmos.12  0:nmos.12  0:nmos.12  0:nmos.12  0:nmos.12  0:nmos.12 
 region       Cutoff     Linear     Cutoff     Cutoff     Cutoff     Cutoff
  id        13.2623p   31.8037p  2.308e-19  -13.2622p    2.8050p    2.8050p
  ibs     -5.019e-26 -1.085e-25  -23.3439a   -2.2559f  -23.3439a  -23.3439a
  ibd       -2.2559f -3.833e-23  -23.3439a -3.849e-23   -2.4903f   -2.4903f
  vgs        0.         1.8000   -44.5283m   -1.4520   -44.5283m  -44.5284m
  vds        1.4520    34.8273n    6.8971n   -1.4520     1.7555     1.7555 
  vbs        0.         0.       -44.5283m   -1.4520   -44.5283m  -44.5284m
  vth      513.3526m  517.3944m  530.0048m  513.3527m  524.3183m  524.3183m
  vdsat     43.9553m  479.3774m   44.0511m   43.9553m   44.0497m   44.0497m
  vod     -513.3526m    1.2826  -574.5332m   -1.9653  -568.8467m -568.8467m
  beta       1.4222m    1.1780m    1.4210m    1.4222m    1.4214m    1.4214m
  gam eff  968.2416m  968.2416m  973.5108m  968.2416m  973.5108m  973.5108m
  gm       383.5352p   10.8289p    6.7117a  383.5347p   81.5573p   81.5573p
  gds        5.6811p  918.3662u   33.4664p    5.6811p    1.1477p    1.1477p
  gmb      117.4525p    5.9529p    2.1192a  117.4523p   24.1583p   24.1583p
  cdtot    561.1225a    1.2364f  716.4488a  727.3887a  543.4012a  543.4012a
  cgtot    520.8064a  881.3509a  520.8064a  520.8064a  520.8064a  520.8064a
  cstot    727.3887a    1.2805f  716.4488a  561.1225a  716.4488a  716.4488a
  cbtot      1.1936f    1.3925f    1.3380f    1.1936f    1.1649f    1.1649f
  cgs      153.9300a  427.6416a  153.9300a  153.9300a  153.9300a  153.9300a
  cgd      153.9300a  427.6416a  153.9300a  153.9300a  153.9300a  153.9300a



 subckt                         x_cout     x_cout     x_sum      x_sum     
 element  0:m_n23    0:m_n24    1:mn       1:mp       2:mn       2:mp      
 model    0:nmos.12  0:nmos.12  0:nmos.12  0:pmos.12  0:nmos.12  0:pmos.12 
 region       Cutoff     Cutoff     Linear     Cutoff     Linear     Cutoff
  id        33.4410p   15.2895p    5.3364p   -1.7348p    5.3364p   -1.7348p
  ibs      -28.3549a -3.850e-23 -2.642e-26  6.812e-25 -2.642e-26  6.812e-25
  ibd      -28.3549a  -16.3804f -8.934e-24    1.5655f -8.934e-24    1.5655f
  vgs      348.0298m  -34.8273n    1.8000   -24.7690n    1.8000  -318.1659n
  vds      348.0295m    1.8000    11.1881n   -1.8000    11.1881n   -1.8000 
  vbs       -1.4520   -34.8273n    0.         0.         0.         0.     
  vth      791.2068m  512.3839m  525.2922m -481.7299m  525.2922m -481.7299m
  vdsat     46.2027m   43.9551m  481.2421m  -41.4875m  481.2420m  -41.4875m
  vod     -443.1770m -512.3839m    1.2747   481.7298m    1.2747   481.7295m
  beta       1.3571m    1.4223m  658.2523u  207.8750u  658.2523u  207.8750u
  gam eff    1.1008   968.2416m    1.0565   694.8753m    1.0565   694.8753m
  gm         1.0301n  442.1458p    1.7172p   52.4139p    1.7172p   52.4143p
  gds       42.2199p    5.9886p  479.7981u  661.0907f  479.7981u  661.0965f
  gmb      142.1342p  133.7896p  936.1280f   18.8917p  936.1309f   18.8919p
  cdtot    543.4012a  543.4012a  684.6135a  580.2071a  684.6135a  580.2071a
  cgtot    452.8409a  520.8064a  433.3455a  477.6987a  433.3455a  477.6986a
  cstot    561.1225a  727.3887a  706.4812a  819.9240a  706.4812a  819.9240a
  cbtot    941.6446a    1.1759f  868.9110a    1.3399f  868.9110a    1.3399f
  cgs      153.9300a  153.9300a  203.6388a  134.4800a  203.6388a  134.4800a
  cgd      153.9300a  153.9300a  203.6388a  134.4800a  203.6388a  134.4800a



 ******  
 first line of the netlist must be blank.

  ******  transient analysis tnom=  25.000 temp=  25.000 *****
   pow=  1.3250E-05  from=  1.0000E-09     to=  1.7000E-07
   tplh1=  1.1944E-10  targ=  2.6144E-09   trig=  2.4950E-09
   tplh2=  6.9190E-11  targ=  7.5642E-09   trig=  7.4950E-09
   tplh3=  1.2924E-10  targ=  1.5124E-08   trig=  1.4995E-08
   tplh4=  1.4223E-10  targ=  2.5137E-08   trig=  2.4995E-08
   tplh5=  2.7719E-10  targ=  3.2772E-08   trig=  3.2495E-08
   tplh6=  5.0462E-09  targ=  3.7541E-08   trig=  3.2495E-08
   tplh7=  2.3081E-10  targ=  4.2726E-08   trig=  4.2495E-08
   tplh8=  6.3368E-11  targ=  5.0058E-08   trig=  4.9995E-08
   tplh9=  4.9589E-11  targ=  5.5045E-08   trig=  5.4995E-08
   tplh10=  7.9716E-11  targ=  5.7575E-08   trig=  5.7495E-08
   tplh11=  1.5275E-08  targ=  7.7770E-08   trig=  6.2495E-08
   tplh12=  1.3557E-10  targ=  8.0131E-08   trig=  7.9995E-08
   tplh13=  2.7209E-09  targ=  9.0216E-08   trig=  8.7495E-08
   tplh14=  2.7775E-10  targ=  9.5273E-08   trig=  9.4995E-08
   tplh15=  2.8984E-10  targ=  1.0528E-07   trig=  1.0500E-07
   tplh16=  1.0114E-10  targ=  1.1760E-07   trig=  1.1750E-07
   tplh17=  2.3904E-10  targ=  1.2773E-07   trig=  1.2749E-07
   tplh18=  2.7582E-09  targ=  1.4525E-07   trig=  1.4250E-07
   tplh19=  1.0249E-08  targ=  1.5024E-07   trig=  1.4000E-07
   tphl1=  1.5737E-10  targ=  5.1524E-09   trig=  4.9950E-09
   tphl2=  9.2145E-11  targ=  1.2587E-08   trig=  1.2495E-08
   tphl3=  7.7076E-09  targ=  2.0203E-08   trig=  1.2495E-08
   tphl4=  1.1072E-10  targ=  3.0106E-08   trig=  2.9995E-08
   tphl5=  1.3908E-10  targ=  3.5134E-08   trig=  3.4995E-08
   tphl6=  4.6195E-11  targ=  3.7541E-08   trig=  3.7495E-08
   tphl7=  2.6996E-09  targ=  4.5195E-08   trig=  4.2495E-08
   tphl8=  2.5634E-09  targ=  5.0058E-08   trig=  4.7495E-08
   tphl9=  7.9716E-11  targ=  5.7575E-08   trig=  5.7495E-08
   tph20=  2.7602E-09  targ=  6.0255E-08   trig=  5.7495E-08
   tphl11=  2.7749E-09  targ=  7.7770E-08   trig=  7.4995E-08
   tphl12=  6.1351E-11  targ=  8.7556E-08   trig=  8.7495E-08
   tphl13=  2.2093E-10  targ=  9.0216E-08   trig=  8.9995E-08
   tphl14=  5.2898E-09  targ=  1.0528E-07   trig=  9.9995E-08
   tphl15=  2.7138E-09  targ=  1.1271E-07   trig=  1.1000E-07
   tphl16=  1.0114E-10  targ=  1.1760E-07   trig=  1.1750E-07
   tphl17=  2.2885E-10  targ=  1.4022E-07   trig=  1.4000E-07
   tphl18=  2.1032E-10  targ=  1.4771E-07   trig=  1.4750E-07
   tp1=  1.2303E-10  targ=  2.0118E-08   trig=  1.9995E-08
   tp2=  5.1496E-09  targ=  4.2645E-08   trig=  3.7495E-08
   tp3=  7.6050E-09  targ=  4.5100E-08   trig=  3.7495E-08
   tp4=  2.6309E-09  targ=  5.0126E-08   trig=  4.7495E-08
   tp5=  6.6952E-11  targ=  5.5062E-08   trig=  5.4995E-08
   tp6=  2.6859E-09  targ=  6.0181E-08   trig=  5.7495E-08
   tp7=  1.0957E-10  targ=  7.7605E-08   trig=  7.7495E-08
   tp8=  1.6842E-10  targ=  9.0163E-08   trig=  8.9995E-08
   tp9=  7.6998E-09  targ=  1.0519E-07   trig=  9.7495E-08
x

        time    voltage      voltage      voltage      voltage    
                    sum         cout           a            b     
    0.            0.           0.           0.           0.       
   10.00000p      0.           0.           0.           0.       
   20.00000p      0.           0.           0.           0.       
   30.00000p      0.           0.           0.           0.       
   40.00000p      0.           0.           0.           0.       
   50.00000p      0.           0.           0.           0.       
   60.00000p      0.           0.           0.           0.       
   70.00000p      0.           0.           0.           0.       
   80.00000p      0.           0.           0.           0.       
   90.00000p      0.           0.           0.           0.       
  100.00000p      0.           0.           0.           0.       
  110.00000p      0.           0.           0.           0.       
  120.00000p      0.           0.           0.           0.       
  130.00000p      0.           0.           0.           0.       
  140.00000p      0.           0.           0.           0.       
  150.00000p      0.           0.           0.           0.       
  160.00000p      0.           0.           0.           0.       
  170.00000p      0.           0.           0.           0.       
  180.00000p      0.           0.           0.           0.       
  190.00000p      0.           0.           0.           0.       
  200.00000p      0.           0.           0.           0.       
  210.00000p      0.           0.           0.           0.       
  220.00000p      0.           0.           0.           0.       
  230.00000p      0.           0.           0.           0.       
  240.00000p      0.           0.           0.           0.       
  250.00000p      0.           0.           0.           0.       
  260.00000p      0.           0.           0.           0.       
  270.00000p      0.           0.           0.           0.       
  280.00000p      0.           0.           0.           0.       
  290.00000p      0.           0.           0.           0.       
  300.00000p      0.           0.           0.           0.       
  310.00000p      0.           0.           0.           0.       
  320.00000p      0.           0.           0.           0.       
  330.00000p      0.           0.           0.           0.       
  340.00000p      0.           0.           0.           0.       
  350.00000p      0.           0.           0.           0.       
  360.00000p      0.           0.           0.           0.       
  370.00000p      0.           0.           0.           0.       
  380.00000p      0.           0.           0.           0.       
  390.00000p      0.           0.           0.           0.       
  400.00000p      0.           0.           0.           0.       
  410.00000p      0.           0.           0.           0.       
  420.00000p      0.           0.           0.           0.       
  430.00000p      0.           0.           0.           0.       
  440.00000p      0.           0.           0.           0.       
  450.00000p      0.           0.           0.           0.       
  460.00000p      0.           0.           0.           0.       
  470.00000p      0.           0.           0.           0.       
  480.00000p      0.           0.           0.           0.       
  490.00000p      0.           0.           0.           0.       
  500.00000p      0.           0.           0.           0.       
  510.00000p      0.           0.           0.           0.       
  520.00000p      0.           0.           0.           0.       
  530.00000p      0.           0.           0.           0.       
  540.00000p      0.           0.           0.           0.       
  550.00000p      0.           0.           0.           0.       
  560.00000p      0.           0.           0.           0.       
  570.00000p      0.           0.           0.           0.       
  580.00000p      0.           0.           0.           0.       
  590.00000p      0.           0.           0.           0.       
  600.00000p      0.           0.           0.           0.       
  610.00000p      0.           0.           0.           0.       
  620.00000p      0.           0.           0.           0.       
  630.00000p      0.           0.           0.           0.       
  640.00000p      0.           0.           0.           0.       
  650.00000p      0.           0.           0.           0.       
  660.00000p      0.           0.           0.           0.       
  670.00000p      0.           0.           0.           0.       
  680.00000p      0.           0.           0.           0.       
  690.00000p      0.           0.           0.           0.       
  700.00000p      0.           0.           0.           0.       
  710.00000p      0.           0.           0.           0.       
  720.00000p      0.           0.           0.           0.       
  730.00000p      0.           0.           0.           0.       
  740.00000p      0.           0.           0.           0.       
  750.00000p      0.           0.           0.           0.       
  760.00000p      0.           0.           0.           0.       
  770.00000p      0.           0.           0.           0.       
  780.00000p      0.           0.           0.           0.       
  790.00000p      0.           0.           0.           0.       
  800.00000p      0.           0.           0.           0.       
  810.00000p      0.           0.           0.           0.       
  820.00000p      0.           0.           0.           0.       
  830.00000p      0.           0.           0.           0.       
  840.00000p      0.           0.           0.           0.       
  850.00000p      0.           0.           0.           0.       
  860.00000p      0.           0.           0.           0.       
  870.00000p      0.           0.           0.           0.       
  880.00000p      0.           0.           0.           0.       
  890.00000p      0.           0.           0.           0.       
  900.00000p      0.           0.           0.           0.       
  910.00000p      0.           0.           0.           0.       
  920.00000p      0.           0.           0.           0.       
  930.00000p      0.           0.           0.           0.       
  940.00000p      0.           0.           0.           0.       
  950.00000p      0.           0.           0.           0.       
  960.00000p      0.           0.           0.           0.       
  970.00000p      0.           0.           0.           0.       
  980.00000p      0.           0.           0.           0.       
  990.00000p      0.           0.           0.           0.       
    1.00000n      0.           0.           0.           0.       
    1.01000n      0.           0.           0.           0.       
    1.02000n      0.           0.           0.           0.       
    1.03000n      0.           0.           0.           0.       
    1.04000n      0.           0.           0.           0.       
    1.05000n      0.           0.           0.           0.       
    1.06000n      0.           0.           0.           0.       
    1.07000n      0.           0.           0.           0.       
    1.08000n      0.           0.           0.           0.       
    1.09000n      0.           0.           0.           0.       
    1.10000n      0.           0.           0.           0.       
    1.11000n      0.           0.           0.           0.       
    1.12000n      0.           0.           0.           0.       
    1.13000n      0.           0.           0.           0.       
    1.14000n      0.           0.           0.           0.       
    1.15000n      0.           0.           0.           0.       
    1.16000n      0.           0.           0.           0.       
    1.17000n      0.           0.           0.           0.       
    1.18000n      0.           0.           0.           0.       
    1.19000n      0.           0.           0.           0.       
    1.20000n      0.           0.           0.           0.       
    1.21000n      0.           0.           0.           0.       
    1.22000n      0.           0.           0.           0.       
    1.23000n      0.           0.           0.           0.       
    1.24000n      0.           0.           0.           0.       
    1.25000n      0.           0.           0.           0.       
    1.26000n      0.           0.           0.           0.       
    1.27000n      0.           0.           0.           0.       
    1.28000n      0.           0.           0.           0.       
    1.29000n      0.           0.           0.           0.       
    1.30000n      0.           0.           0.           0.       
    1.31000n      0.           0.           0.           0.       
    1.32000n      0.           0.           0.           0.       
    1.33000n      0.           0.           0.           0.       
    1.34000n      0.           0.           0.           0.       
    1.35000n      0.           0.           0.           0.       
    1.36000n      0.           0.           0.           0.       
    1.37000n      0.           0.           0.           0.       
    1.38000n      0.           0.           0.           0.       
    1.39000n      0.           0.           0.           0.       
    1.40000n      0.           0.           0.           0.       
    1.41000n      0.           0.           0.           0.       
    1.42000n      0.           0.           0.           0.       
    1.43000n      0.           0.           0.           0.       
    1.44000n      0.           0.           0.           0.       
    1.45000n      0.           0.           0.           0.       
    1.46000n      0.           0.           0.           0.       
    1.47000n      0.           0.           0.           0.       
    1.48000n      0.           0.           0.           0.       
    1.49000n      0.           0.           0.           0.       
    1.50000n      0.           0.           0.           0.       
    1.51000n      0.           0.           0.           0.       
    1.52000n      0.           0.           0.           0.       
    1.53000n      0.           0.           0.           0.       
    1.54000n      0.           0.           0.           0.       
    1.55000n      0.           0.           0.           0.       
    1.56000n      0.           0.           0.           0.       
    1.57000n      0.           0.           0.           0.       
    1.58000n      0.           0.           0.           0.       
    1.59000n      0.           0.           0.           0.       
    1.60000n      0.           0.           0.           0.       
    1.61000n      0.           0.           0.           0.       
    1.62000n      0.           0.           0.           0.       
    1.63000n      0.           0.           0.           0.       
    1.64000n      0.           0.           0.           0.       
    1.65000n      0.           0.           0.           0.       
    1.66000n      0.           0.           0.           0.       
    1.67000n      0.           0.           0.           0.       
    1.68000n      0.           0.           0.           0.       
    1.69000n      0.           0.           0.           0.       
    1.70000n      0.           0.           0.           0.       
    1.71000n      0.           0.           0.           0.       
    1.72000n      0.           0.           0.           0.       
    1.73000n      0.           0.           0.           0.       
    1.74000n      0.           0.           0.           0.       
    1.75000n      0.           0.           0.           0.       
    1.76000n      0.           0.           0.           0.       
    1.77000n      0.           0.           0.           0.       
    1.78000n      0.           0.           0.           0.       
    1.79000n      0.           0.           0.           0.       
    1.80000n      0.           0.           0.           0.       
    1.81000n      0.           0.           0.           0.       
    1.82000n      0.           0.           0.           0.       
    1.83000n      0.           0.           0.           0.       
    1.84000n      0.           0.           0.           0.       
    1.85000n      0.           0.           0.           0.       
    1.86000n      0.           0.           0.           0.       
    1.87000n      0.           0.           0.           0.       
    1.88000n      0.           0.           0.           0.       
    1.89000n      0.           0.           0.           0.       
    1.90000n      0.           0.           0.           0.       
    1.91000n      0.           0.           0.           0.       
    1.92000n      0.           0.           0.           0.       
    1.93000n      0.           0.           0.           0.       
    1.94000n      0.           0.           0.           0.       
    1.95000n      0.           0.           0.           0.       
    1.96000n      0.           0.           0.           0.       
    1.97000n      0.           0.           0.           0.       
    1.98000n      0.           0.           0.           0.       
    1.99000n      0.           0.           0.           0.       
    2.00000n      0.           0.           0.           0.       
    2.01000n      0.           0.           0.           0.       
    2.02000n      0.           0.           0.           0.       
    2.03000n      0.           0.           0.           0.       
    2.04000n      0.           0.           0.           0.       
    2.05000n      0.           0.           0.           0.       
    2.06000n      0.           0.           0.           0.       
    2.07000n      0.           0.           0.           0.       
    2.08000n      0.           0.           0.           0.       
    2.09000n      0.           0.           0.           0.       
    2.10000n      0.           0.           0.           0.       
    2.11000n      0.           0.           0.           0.       
    2.12000n      0.           0.           0.           0.       
    2.13000n      0.           0.           0.           0.       
    2.14000n      0.           0.           0.           0.       
    2.15000n      0.           0.           0.           0.       
    2.16000n      0.           0.           0.           0.       
    2.17000n      0.           0.           0.           0.       
    2.18000n      0.           0.           0.           0.       
    2.19000n      0.           0.           0.           0.       
    2.20000n      0.           0.           0.           0.       
    2.21000n      0.           0.           0.           0.       
    2.22000n      0.           0.           0.           0.       
    2.23000n      0.           0.           0.           0.       
    2.24000n      0.           0.           0.           0.       
    2.25000n      0.           0.           0.           0.       
    2.26000n      0.           0.           0.           0.       
    2.27000n      0.           0.           0.           0.       
    2.28000n      0.           0.           0.           0.       
    2.29000n      0.           0.           0.           0.       
    2.30000n      0.           0.           0.           0.       
    2.31000n      0.           0.           0.           0.       
    2.32000n      0.           0.           0.           0.       
    2.33000n      0.           0.           0.           0.       
    2.34000n      0.           0.           0.           0.       
    2.35000n      0.           0.           0.           0.       
    2.36000n      0.           0.           0.           0.       
    2.37000n      0.           0.           0.           0.       
    2.38000n      0.           0.           0.           0.       
    2.39000n      0.           0.           0.           0.       
    2.40000n      0.           0.           0.           0.       
    2.41000n      0.           0.           0.           0.       
    2.42000n      0.           0.           0.           0.       
    2.43000n      0.           0.           0.           0.       
    2.44000n      0.           0.           0.           0.       
    2.45000n      0.           0.           0.           0.       
    2.46000n      0.           0.           0.           0.       
    2.47000n      0.           0.           0.           0.       
    2.48000n      0.           0.           0.           0.       
    2.49000n      0.           0.           0.           0.       
    2.50000n    717.1001u      3.4275m      0.           0.       
    2.51000n     -8.2755m     -4.6312m      0.           0.       
    2.52000n    -10.2927m     -1.3786m      0.           0.       
    2.53000n     -9.7097m   -614.5982u      0.           0.       
    2.54000n     -8.8425m   -418.8207u      0.           0.       
    2.55000n     -4.9632m   -328.8533u      0.           0.       
    2.56000n      4.6423m   -258.0557u      0.           0.       
    2.57000n     34.1750m   -197.3908u      0.           0.       
    2.58000n    136.0773m   -173.5249u      0.           0.       
    2.59000n    282.6754m   -172.3863u      0.           0.       
    2.60000n    465.9566m   -189.9006u      0.           0.       
    2.61000n    754.5163m   -137.3499u      0.           0.       
    2.62000n      1.1153     -54.1296u      0.           0.       
    2.63000n      1.4114      35.9201u      0.           0.       
    2.64000n      1.6159     123.1879u      0.           0.       
    2.65000n      1.7181     217.7077u      0.           0.       
    2.66000n      1.7817     273.3169u      0.           0.       
    2.67000n      1.7872     250.0704u      0.           0.       
    2.68000n      1.7909     239.0123u      0.           0.       
    2.69000n      1.7932     237.4208u      0.           0.       
    2.70000n      1.7956     235.8294u      0.           0.       
    2.71000n      1.7979     234.2379u      0.           0.       
    2.72000n      1.7984     195.0339u      0.           0.       
    2.73000n      1.7986     149.3402u      0.           0.       
    2.74000n      1.7988     120.6557u      0.           0.       
    2.75000n      1.7989     110.7881u      0.           0.       
    2.76000n      1.7991     100.9205u      0.           0.       
    2.77000n      1.7993      91.0529u      0.           0.       
    2.78000n      1.7994      81.1853u      0.           0.       
    2.79000n      1.7995      70.9242u      0.           0.       
    2.80000n      1.7995      60.5393u      0.           0.       
    2.81000n      1.7996      50.1545u      0.           0.       
    2.82000n      1.7996      39.7697u      0.           0.       
    2.83000n      1.7996      29.3848u      0.           0.       
    2.84000n      1.7997      19.0000u      0.           0.       
    2.85000n      1.7997      13.3030u      0.           0.       
    2.86000n      1.7997      13.1939u      0.           0.       
    2.87000n      1.7997      13.0848u      0.           0.       
    2.88000n      1.7998      12.9757u      0.           0.       
    2.89000n      1.7998      12.8667u      0.           0.       
    2.90000n      1.7998      12.7576u      0.           0.       
    2.91000n      1.7998      12.6485u      0.           0.       
    2.92000n      1.7998      12.5394u      0.           0.       
    2.93000n      1.7999      12.4303u      0.           0.       
    2.94000n      1.7999      12.3213u      0.           0.       
    2.95000n      1.7999      12.2122u      0.           0.       
    2.96000n      1.7999      12.1031u      0.           0.       
    2.97000n      1.7999      11.9940u      0.           0.       
    2.98000n      1.8000      11.8850u      0.           0.       
    2.99000n      1.8000      11.2181u      0.           0.       
    3.00000n      1.8000      10.2089u      0.           0.       
    3.01000n      1.8000       9.1997u      0.           0.       
    3.02000n      1.8000       8.1905u      0.           0.       
    3.03000n      1.8000       7.1813u      0.           0.       
    3.04000n      1.8000       6.1721u      0.           0.       
    3.05000n      1.8000       5.1629u      0.           0.       
    3.06000n      1.8000       4.1537u      0.           0.       
    3.07000n      1.8000       3.1445u      0.           0.       
    3.08000n      1.8000       2.1353u      0.           0.       
    3.09000n      1.8000       1.1261u      0.           0.       
    3.10000n      1.8000     116.9142n      0.           0.       
    3.11000n      1.8000    -892.2887n      0.           0.       
    3.12000n      1.7999      -1.9015u      0.           0.       
    3.13000n      1.7999      -2.9107u      0.           0.       
    3.14000n      1.7999      -3.9199u      0.           0.       
    3.15000n      1.7999      -4.9291u      0.           0.       
    3.16000n      1.7999      -5.9383u      0.           0.       
    3.17000n      1.7999      -6.9475u      0.           0.       
    3.18000n      1.7999      -7.1349u      0.           0.       
    3.19000n      1.7999      -6.5639u      0.           0.       
    3.20000n      1.7999      -5.9929u      0.           0.       
    3.21000n      1.8000      -5.4219u      0.           0.       
    3.22000n      1.8000      -4.8508u      0.           0.       
    3.23000n      1.8000      -4.2798u      0.           0.       
    3.24000n      1.8000      -3.7088u      0.           0.       
    3.25000n      1.8000      -3.1378u      0.           0.       
    3.26000n      1.8000      -2.5668u      0.           0.       
    3.27000n      1.8000      -1.9957u      0.           0.       
    3.28000n      1.8000      -1.4247u      0.           0.       
    3.29000n      1.8000    -853.6936n      0.           0.       
    3.30000n      1.8000    -282.6723n      0.           0.       
    3.31000n      1.8000     288.3489n      0.           0.       
    3.32000n      1.8000     859.3701n      0.           0.       
    3.33000n      1.8000       1.4304u      0.           0.       
    3.34000n      1.8000       2.0014u      0.           0.       
    3.35000n      1.8000       2.5724u      0.           0.       
    3.36000n      1.8000       3.1435u      0.           0.       
    3.37000n      1.8000       3.7145u      0.           0.       
    3.38000n      1.8000       4.2855u      0.           0.       
    3.39000n      1.8000       4.8565u      0.           0.       
    3.40000n      1.8000       5.4275u      0.           0.       
    3.41000n      1.8000       5.9986u      0.           0.       
    3.42000n      1.8000       6.5696u      0.           0.       
    3.43000n      1.8000       7.1406u      0.           0.       
    3.44000n      1.8000       7.7116u      0.           0.       
    3.45000n      1.8000       8.2826u      0.           0.       
    3.46000n      1.8000       8.8537u      0.           0.       
    3.47000n      1.8000       8.5382u      0.           0.       
    3.48000n      1.8000       8.1366u      0.           0.       
    3.49000n      1.8000       7.7349u      0.           0.       
    3.50000n      1.8000       7.3333u      0.           0.       
    3.51000n      1.8000       6.9316u      0.           0.       
    3.52000n      1.8000       6.5300u      0.           0.       
    3.53000n      1.8000       6.1284u      0.           0.       
    3.54000n      1.8000       5.7267u      0.           0.       
    3.55000n      1.8000       5.3251u      0.           0.       
    3.56000n      1.8000       4.9234u      0.           0.       
    3.57000n      1.8000       4.5218u      0.           0.       
    3.58000n      1.8000       4.1201u      0.           0.       
    3.59000n      1.8000       3.7185u      0.           0.       
    3.60000n      1.8000       3.3168u      0.           0.       
    3.61000n      1.8000       2.9152u      0.           0.       
    3.62000n      1.8000       2.5135u      0.           0.       
    3.63000n      1.8000       2.1119u      0.           0.       
    3.64000n      1.8000       1.7102u      0.           0.       
    3.65000n      1.8000       1.3086u      0.           0.       
    3.66000n      1.8000     906.9338n      0.           0.       
    3.67000n      1.8000     505.2863n      0.           0.       
    3.68000n      1.8000     103.6388n      0.           0.       
    3.69000n      1.8000    -298.0087n      0.           0.       
    3.70000n      1.8000    -699.6563n      0.           0.       
    3.71000n      1.8000      -1.1013u      0.           0.       
    3.72000n      1.8000      -1.5030u      0.           0.       
    3.73000n      1.8000      -1.9046u      0.           0.       
    3.74000n      1.8000      -2.3062u      0.           0.       
    3.75000n      1.8000      -2.7079u      0.           0.       
    3.76000n      1.8000      -3.1095u      0.           0.       
    3.77000n      1.8000      -3.5112u      0.           0.       
    3.78000n      1.8000      -3.9128u      0.           0.       
    3.79000n      1.8000      -4.3145u      0.           0.       
    3.80000n      1.8000      -4.7161u      0.           0.       
    3.81000n      1.8000      -5.1178u      0.           0.       
    3.82000n      1.8000      -5.5194u      0.           0.       
    3.83000n      1.8000      -5.9211u      0.           0.       
    3.84000n      1.8000      -6.3227u      0.           0.       
    3.85000n      1.8000      -6.7244u      0.           0.       
    3.86000n      1.8000      -7.1260u      0.           0.       
    3.87000n      1.8000      -7.5277u      0.           0.       
    3.88000n      1.8000      -7.9293u      0.           0.       
    3.89000n      1.8000      -7.8108u      0.           0.       
    3.90000n      1.8000      -7.5883u      0.           0.       
    3.91000n      1.8000      -7.3657u      0.           0.       
    3.92000n      1.8000      -7.1432u      0.           0.       
    3.93000n      1.8000      -6.9207u      0.           0.       
    3.94000n      1.8000      -6.6982u      0.           0.       
    3.95000n      1.8000      -6.4757u      0.           0.       
    3.96000n      1.8000      -6.2532u      0.           0.       
    3.97000n      1.8000      -6.0307u      0.           0.       
    3.98000n      1.8000      -5.8082u      0.           0.       
    3.99000n      1.8000      -5.5857u      0.           0.       
    4.00000n      1.8000      -5.3631u      0.           0.       
    4.01000n      1.8000      -5.1406u      0.           0.       
    4.02000n      1.8000      -4.9181u      0.           0.       
    4.03000n      1.8000      -4.6956u      0.           0.       
    4.04000n      1.8000      -4.4731u      0.           0.       
    4.05000n      1.8000      -4.2506u      0.           0.       
    4.06000n      1.8000      -4.0281u      0.           0.       
    4.07000n      1.8000      -3.8056u      0.           0.       
    4.08000n      1.8000      -3.5831u      0.           0.       
    4.09000n      1.8000      -3.3605u      0.           0.       
    4.10000n      1.8000      -3.1380u      0.           0.       
    4.11000n      1.8000      -2.9155u      0.           0.       
    4.12000n      1.8000      -2.6930u      0.           0.       
    4.13000n      1.8000      -2.4705u      0.           0.       
    4.14000n      1.8000      -2.2480u      0.           0.       
    4.15000n      1.8000      -2.0255u      0.           0.       
    4.16000n      1.8000      -1.8030u      0.           0.       
    4.17000n      1.8000      -1.5804u      0.           0.       
    4.18000n      1.8000      -1.3579u      0.           0.       
    4.19000n      1.8000      -1.1354u      0.           0.       
    4.20000n      1.8000    -912.9101n      0.           0.       
    4.21000n      1.8000    -690.3984n      0.           0.       
    4.22000n      1.8000    -467.8867n      0.           0.       
    4.23000n      1.8000    -245.3750n      0.           0.       
    4.24000n      1.8000     -22.8633n      0.           0.       
    4.25000n      1.8000     199.6484n      0.           0.       
    4.26000n      1.8000     422.1601n      0.           0.       
    4.27000n      1.8000     644.6718n      0.           0.       
    4.28000n      1.8000     867.1835n      0.           0.       
    4.29000n      1.8000       1.0897u      0.           0.       
    4.30000n      1.8000       1.3122u      0.           0.       
    4.31000n      1.8000       1.5347u      0.           0.       
    4.32000n      1.8000       1.7572u      0.           0.       
    4.33000n      1.8000       1.9797u      0.           0.       
    4.34000n      1.8000       2.2023u      0.           0.       
    4.35000n      1.8000       2.4248u      0.           0.       
    4.36000n      1.8000       2.6473u      0.           0.       
    4.37000n      1.8000       2.8698u      0.           0.       
    4.38000n      1.8000       3.0923u      0.           0.       
    4.39000n      1.8000       3.3148u      0.           0.       
    4.40000n      1.8000       3.5373u      0.           0.       
    4.41000n      1.8000       3.7598u      0.           0.       
    4.42000n      1.8000       3.9823u      0.           0.       
    4.43000n      1.8000       4.2049u      0.           0.       
    4.44000n      1.8000       4.4274u      0.           0.       
    4.45000n      1.8000       4.6499u      0.           0.       
    4.46000n      1.8000       4.8724u      0.           0.       
    4.47000n      1.8000       5.0949u      0.           0.       
    4.48000n      1.8000       5.3174u      0.           0.       
    4.49000n      1.8000       5.5399u      0.           0.       
    4.50000n      1.8000       5.7624u      0.           0.       
    4.51000n      1.8000       5.9850u      0.           0.       
    4.52000n      1.8000       6.2075u      0.           0.       
    4.53000n      1.8000       6.4300u      0.           0.       
    4.54000n      1.8000       6.6525u      0.           0.       
    4.55000n      1.8000       6.8750u      0.           0.       
    4.56000n      1.8000       7.0975u      0.           0.       
    4.57000n      1.8000       7.3200u      0.           0.       
    4.58000n      1.8000       7.5425u      0.           0.       
    4.59000n      1.8000       7.7650u      0.           0.       
    4.60000n      1.8000       7.9876u      0.           0.       
    4.61000n      1.8000       7.9606u      0.           0.       
    4.62000n      1.8000       7.5475u      0.           0.       
    4.63000n      1.8000       7.1343u      0.           0.       
    4.64000n      1.8000       6.7211u      0.           0.       
    4.65000n      1.8000       6.3080u      0.           0.       
    4.66000n      1.8000       5.8948u      0.           0.       
    4.67000n      1.8000       5.4816u      0.           0.       
    4.68000n      1.8000       5.0684u      0.           0.       
    4.69000n      1.8000       4.6553u      0.           0.       
    4.70000n      1.8000       4.2421u      0.           0.       
    4.71000n      1.8000       3.8289u      0.           0.       
    4.72000n      1.8000       3.4158u      0.           0.       
    4.73000n      1.8000       3.0026u      0.           0.       
    4.74000n      1.8000       2.5894u      0.           0.       
    4.75000n      1.8000       2.1763u      0.           0.       
    4.76000n      1.8000       1.7631u      0.           0.       
    4.77000n      1.8000       1.3499u      0.           0.       
    4.78000n      1.8000     936.7714n      0.           0.       
    4.79000n      1.8000     523.6035n      0.           0.       
    4.80000n      1.8000     110.4357n      0.           0.       
    4.81000n      1.8000    -302.7322n      0.           0.       
    4.82000n      1.8000    -715.9000n      0.           0.       
    4.83000n      1.8000      -1.1291u      0.           0.       
    4.84000n      1.8000      -1.5422u      0.           0.       
    4.85000n      1.8000      -1.9554u      0.           0.       
    4.86000n      1.8000      -2.3686u      0.           0.       
    4.87000n      1.8000      -2.7817u      0.           0.       
    4.88000n      1.8000      -3.1949u      0.           0.       
    4.89000n      1.8000      -3.6081u      0.           0.       
    4.90000n      1.8000      -4.0212u      0.           0.       
    4.91000n      1.8000      -4.4344u      0.           0.       
    4.92000n      1.8000      -4.8476u      0.           0.       
    4.93000n      1.8000      -5.2607u      0.           0.       
    4.94000n      1.8000      -5.6739u      0.           0.       
    4.95000n      1.8000      -6.0871u      0.           0.       
    4.96000n      1.8000      -6.5002u      0.           0.       
    4.97000n      1.8000      -6.9134u      0.           0.       
    4.98000n      1.8000      -7.3266u      0.           0.       
    4.99000n      1.8000      -7.7398u      0.           0.       
    5.00000n      1.7882     -11.4889m      0.           0.       
    5.01000n      1.7958       2.5148m      0.           0.       
    5.02000n      1.8003       2.0917m      0.           0.       
    5.03000n      1.8034       1.3604m      0.           0.       
    5.04000n      1.8082       1.1395m      0.           0.       
    5.05000n      1.8137     923.7238u      0.           0.       
    5.06000n      1.8196     710.8456u      0.           0.       
    5.07000n      1.8244     576.1622u      0.           0.       
    5.08000n      1.8289     460.0506u      0.           0.       
    5.09000n      1.8162     359.6682u      0.           0.       
    5.10000n      1.7859     275.5968u      0.           0.       
    5.11000n      1.7556     191.5255u      0.           0.       
    5.12000n      1.6957     111.4973u      0.           0.       
    5.13000n      1.5068      49.1659u      0.           0.       
    5.14000n      1.2688      -6.4399u      0.           0.       
    5.15000n    970.5436m    -53.7921u      0.           0.       
    5.16000n    660.5119m    -99.0952u      0.           0.       
    5.17000n    345.7045m   -143.5695u      0.           0.       
    5.18000n     70.2608m   -172.0237u      0.           0.       
    5.19000n    -43.8403m   -134.8155u      0.           0.       
    5.20000n    -41.8410m    -50.3574u      0.           0.       
    5.21000n    -15.5719m    -24.0864u      0.           0.       
    5.22000n      8.4132m    -86.2876u      0.           0.       
    5.23000n     11.0011m    -89.7144u      0.           0.       
    5.24000n    -84.3071u    -55.5825u      0.           0.       
    5.25000n     -2.1698m    -47.0825u      0.           0.       
    5.26000n      2.5772m    -58.0410u      0.           0.       
    5.27000n      5.4111m    -63.4197u      0.           0.       
    5.28000n      2.6606m    -52.5096u      0.           0.       
    5.29000n    -89.9607u    -41.5995u      0.           0.       
    5.30000n     -1.0193m    -35.7707u      0.           0.       
    5.31000n     79.8854u    -35.6014u      0.           0.       
    5.32000n      1.1790m    -35.4322u      0.           0.       
    5.33000n      2.2782m    -35.2629u      0.           0.       
    5.34000n      2.4352m    -33.0767u      0.           0.       
    5.35000n      1.7224m    -29.0285u      0.           0.       
    5.36000n      1.0096m    -24.9802u      0.           0.       
    5.37000n    296.8781u    -20.9320u      0.           0.       
    5.38000n   -415.8825u    -16.8838u      0.           0.       
    5.39000n     -1.1286m    -12.8356u      0.           0.       
    5.40000n     -1.1005m    -11.4265u      0.           0.       
    5.41000n   -778.2733u    -11.0649u      0.           0.       
    5.42000n   -456.0546u    -10.7033u      0.           0.       
    5.43000n   -133.8358u    -10.3417u      0.           0.       
    5.44000n    188.3830u     -9.9801u      0.           0.       
    5.45000n    510.6017u     -9.6185u      0.           0.       
    5.46000n    832.8205u     -9.2569u      0.           0.       
    5.47000n      1.1550m     -8.8953u      0.           0.       
    5.48000n      1.4773m     -8.5337u      0.           0.       
    5.49000n      1.3967m     -7.7755u      0.           0.       
    5.50000n      1.1534m     -6.8570u      0.           0.       
    5.51000n    910.1660u     -5.9385u      0.           0.       
    5.52000n    666.8840u     -5.0200u      0.           0.       
    5.53000n    423.6019u     -4.1015u      0.           0.       
    5.54000n    180.3198u     -3.1831u      0.           0.       
    5.55000n    -62.9622u     -2.2646u      0.           0.       
    5.56000n   -306.2443u     -1.3461u      0.           0.       
    5.57000n   -549.5263u   -427.5958n      0.           0.       
    5.58000n   -792.8084u    490.8894n      0.           0.       
    5.59000n     -1.0361m      1.4094u      0.           0.       
    5.60000n     -1.2794m      2.3279u      0.           0.       
    5.61000n     -1.1976m      2.2273u      0.           0.       
    5.62000n     -1.0366m      1.8782u      0.           0.       
    5.63000n   -875.5571u      1.5291u      0.           0.       
    5.64000n   -714.5330u      1.1801u      0.           0.       
    5.65000n   -553.5088u    831.0110n      0.           0.       
    5.66000n   -392.4847u    481.9450n      0.           0.       
    5.67000n   -231.4605u    132.8790n      0.           0.       
    5.68000n    -70.4363u   -216.1870n      0.           0.       
    5.69000n     90.5878u   -565.2530n      0.           0.       
    5.70000n    251.6120u   -914.3190n      0.           0.       
    5.71000n    412.6361u     -1.2634u      0.           0.       
    5.72000n    573.6603u     -1.6125u      0.           0.       
    5.73000n    734.6844u     -1.9615u      0.           0.       
    5.74000n    895.7086u     -2.3106u      0.           0.       
    5.75000n      1.0567m     -2.6596u      0.           0.       
    5.76000n      1.2178m     -3.0087u      0.           0.       
    5.77000n      1.1729m     -2.8903u      0.           0.       
    5.78000n      1.0664m     -2.6316u      0.           0.       
    5.79000n    959.8458u     -2.3729u      0.           0.       
    5.80000n    853.2972u     -2.1142u      0.           0.       
    5.81000n    746.7486u     -1.8556u      0.           0.       
    5.82000n    640.2000u     -1.5969u      0.           0.       
    5.83000n    533.6515u     -1.3382u      0.           0.       
    5.84000n    427.1029u     -1.0795u      0.           0.       
    5.85000n    320.5543u   -820.8513n      0.           0.       
    5.86000n    214.0057u   -562.1755n      0.           0.       
    5.87000n    107.4571u   -303.4996n      0.           0.       
    5.88000n    908.5524n    -44.8238n      0.           0.       
    5.89000n   -105.6400u    213.8520n      0.           0.       
    5.90000n   -212.1886u    472.5279n      0.           0.       
    5.91000n   -318.7372u    731.2037n      0.           0.       
    5.92000n   -425.2858u    989.8795n      0.           0.       
    5.93000n   -531.8344u      1.2486u      0.           0.       
    5.94000n   -638.3829u      1.5072u      0.           0.       
    5.95000n   -744.9315u      1.7659u      0.           0.       
    5.96000n   -851.4801u      2.0246u      0.           0.       
    5.97000n   -958.0287u      2.2833u      0.           0.       
    5.98000n     -1.0646m      2.5419u      0.           0.       
    5.99000n     -1.1711m      2.8006u      0.           0.       
    6.00000n     -1.1544m      2.7622u      0.           0.       
    6.01000n     -1.0985m      2.6292u      0.           0.       
    6.02000n     -1.0426m      2.4961u      0.           0.       
    6.03000n   -986.6172u      2.3631u      0.           0.       
    6.04000n   -930.6782u      2.2301u      0.           0.       
    6.05000n   -874.7391u      2.0971u      0.           0.       
    6.06000n   -818.8000u      1.9640u      0.           0.       
    6.07000n   -762.8609u      1.8310u      0.           0.       
    6.08000n   -706.9219u      1.6980u      0.           0.       
    6.09000n   -650.9828u      1.5650u      0.           0.       
    6.10000n   -595.0437u      1.4319u      0.           0.       
    6.11000n   -539.1047u      1.2989u      0.           0.       
    6.12000n   -483.1656u      1.1659u      0.           0.       
    6.13000n   -427.2265u      1.0329u      0.           0.       
    6.14000n   -371.2875u    899.8299n      0.           0.       
    6.15000n   -315.3484u    766.8037n      0.           0.       
    6.16000n   -259.4093u    633.7775n      0.           0.       
    6.17000n   -203.4702u    500.7513n      0.           0.       
    6.18000n   -147.5312u    367.7251n      0.           0.       
    6.19000n    -91.5921u    234.6989n      0.           0.       
    6.20000n    -35.6530u    101.6727n      0.           0.       
    6.21000n     20.2860u    -31.3535n      0.           0.       
    6.22000n     76.2251u   -164.3797n      0.           0.       
    6.23000n    132.1642u   -297.4059n      0.           0.       
    6.24000n    188.1032u   -430.4321n      0.           0.       
    6.25000n    244.0423u   -563.4583n      0.           0.       
    6.26000n    299.9814u   -696.4845n      0.           0.       
    6.27000n    355.9205u   -829.5108n      0.           0.       
    6.28000n    411.8595u   -962.5370n      0.           0.       
    6.29000n    467.7986u     -1.0956u      0.           0.       
    6.30000n    523.7377u     -1.2286u      0.           0.       
    6.31000n    579.6767u     -1.3616u      0.           0.       
    6.32000n    635.6158u     -1.4946u      0.           0.       
    6.33000n    691.5549u     -1.6277u      0.           0.       
    6.34000n    747.4939u     -1.7607u      0.           0.       
    6.35000n    803.4330u     -1.8937u      0.           0.       
    6.36000n    859.3721u     -2.0267u      0.           0.       
    6.37000n    915.3112u     -2.1598u      0.           0.       
    6.38000n    971.2502u     -2.2928u      0.           0.       
    6.39000n      1.0272m     -2.4258u      0.           0.       
    6.40000n      1.0831m     -2.5589u      0.           0.       
    6.41000n      1.1391m     -2.6919u      0.           0.       
    6.42000n      1.1507m     -2.7198u      0.           0.       
    6.43000n      1.1188m     -2.6443u      0.           0.       
    6.44000n      1.0869m     -2.5688u      0.           0.       
    6.45000n      1.0550m     -2.4933u      0.           0.       
    6.46000n      1.0230m     -2.4178u      0.           0.       
    6.47000n    991.1035u     -2.3423u      0.           0.       
    6.48000n    959.1799u     -2.2668u      0.           0.       
    6.49000n    927.2564u     -2.1913u      0.           0.       
    6.50000n    895.3329u     -2.1158u      0.           0.       
    6.51000n    863.4093u     -2.0403u      0.           0.       
    6.52000n    831.4858u     -1.9648u      0.           0.       
    6.53000n    799.5623u     -1.8893u      0.           0.       
    6.54000n    767.6388u     -1.8138u      0.           0.       
    6.55000n    735.7152u     -1.7383u      0.           0.       
    6.56000n    703.7917u     -1.6628u      0.           0.       
    6.57000n    671.8682u     -1.5873u      0.           0.       
    6.58000n    639.9446u     -1.5118u      0.           0.       
    6.59000n    608.0211u     -1.4363u      0.           0.       
    6.60000n    576.0976u     -1.3608u      0.           0.       
    6.61000n    544.1741u     -1.2853u      0.           0.       
    6.62000n    512.2505u     -1.2098u      0.           0.       
    6.63000n    480.3270u     -1.1343u      0.           0.       
    6.64000n    448.4035u     -1.0588u      0.           0.       
    6.65000n    416.4799u   -983.2786n      0.           0.       
[...]
  163.49000n      0.       
  163.50000n      0.       
  163.51000n      0.       
  163.52000n      0.       
  163.53000n      0.       
  163.54000n      0.       
  163.55000n      0.       
  163.56000n      0.       
  163.57000n      0.       
  163.58000n      0.       
  163.59000n      0.       
  163.60000n      0.       
  163.61000n      0.       
  163.62000n      0.       
  163.63000n      0.       
  163.64000n      0.       
  163.65000n      0.       
  163.66000n      0.       
  163.67000n      0.       
  163.68000n      0.       
  163.69000n      0.       
  163.70000n      0.       
  163.71000n      0.       
  163.72000n      0.       
  163.73000n      0.       
  163.74000n      0.       
  163.75000n      0.       
  163.76000n      0.       
  163.77000n      0.       
  163.78000n      0.       
  163.79000n      0.       
  163.80000n      0.       
  163.81000n      0.       
  163.82000n      0.       
  163.83000n      0.       
  163.84000n      0.       
  163.85000n      0.       
  163.86000n      0.       
  163.87000n      0.       
  163.88000n      0.       
  163.89000n      0.       
  163.90000n      0.       
  163.91000n      0.       
  163.92000n      0.       
  163.93000n      0.       
  163.94000n      0.       
  163.95000n      0.       
  163.96000n      0.       
  163.97000n      0.       
  163.98000n      0.       
  163.99000n      0.       
  164.00000n      0.       
  164.01000n      0.       
  164.02000n      0.       
  164.03000n      0.       
  164.04000n      0.       
  164.05000n      0.       
  164.06000n      0.       
  164.07000n      0.       
  164.08000n      0.       
  164.09000n      0.       
  164.10000n      0.       
  164.11000n      0.       
  164.12000n      0.       
  164.13000n      0.       
  164.14000n      0.       
  164.15000n      0.       
  164.16000n      0.       
  164.17000n      0.       
  164.18000n      0.       
  164.19000n      0.       
  164.20000n      0.       
  164.21000n      0.       
  164.22000n      0.       
  164.23000n      0.       
  164.24000n      0.       
  164.25000n      0.       
  164.26000n      0.       
  164.27000n      0.       
  164.28000n      0.       
  164.29000n      0.       
  164.30000n      0.       
  164.31000n      0.       
  164.32000n      0.       
  164.33000n      0.       
  164.34000n      0.       
  164.35000n      0.       
  164.36000n      0.       
  164.37000n      0.       
  164.38000n      0.       
  164.39000n      0.       
  164.40000n      0.       
  164.41000n      0.       
  164.42000n      0.       
  164.43000n      0.       
  164.44000n      0.       
  164.45000n      0.       
  164.46000n      0.       
  164.47000n      0.       
  164.48000n      0.       
  164.49000n      0.       
  164.50000n      0.       
  164.51000n      0.       
  164.52000n      0.       
  164.53000n      0.       
  164.54000n      0.       
  164.55000n      0.       
  164.56000n      0.       
  164.57000n      0.       
  164.58000n      0.       
  164.59000n      0.       
  164.60000n      0.       
  164.61000n      0.       
  164.62000n      0.       
  164.63000n      0.       
  164.64000n      0.       
  164.65000n      0.       
  164.66000n      0.       
  164.67000n      0.       
  164.68000n      0.       
  164.69000n      0.       
  164.70000n      0.       
  164.71000n      0.       
  164.72000n      0.       
  164.73000n      0.       
  164.74000n      0.       
  164.75000n      0.       
  164.76000n      0.       
  164.77000n      0.       
  164.78000n      0.       
  164.79000n      0.       
  164.80000n      0.       
  164.81000n      0.       
  164.82000n      0.       
  164.83000n      0.       
  164.84000n      0.       
  164.85000n      0.       
  164.86000n      0.       
  164.87000n      0.       
  164.88000n      0.       
  164.89000n      0.       
  164.90000n      0.       
  164.91000n      0.       
  164.92000n      0.       
  164.93000n      0.       
  164.94000n      0.       
  164.95000n      0.       
  164.96000n      0.       
  164.97000n      0.       
  164.98000n      0.       
  164.99000n      0.       
  165.00000n      0.       
  165.01000n      0.       
  165.02000n      0.       
  165.03000n      0.       
  165.04000n      0.       
  165.05000n      0.       
  165.06000n      0.       
  165.07000n      0.       
  165.08000n      0.       
  165.09000n      0.       
  165.10000n      0.       
  165.11000n      0.       
  165.12000n      0.       
  165.13000n      0.       
  165.14000n      0.       
  165.15000n      0.       
  165.16000n      0.       
  165.17000n      0.       
  165.18000n      0.       
  165.19000n      0.       
  165.20000n      0.       
  165.21000n      0.       
  165.22000n      0.       
  165.23000n      0.       
  165.24000n      0.       
  165.25000n      0.       
  165.26000n      0.       
  165.27000n      0.       
  165.28000n      0.       
  165.29000n      0.       
  165.30000n      0.       
  165.31000n      0.       
  165.32000n      0.       
  165.33000n      0.       
  165.34000n      0.       
  165.35000n      0.       
  165.36000n      0.       
  165.37000n      0.       
  165.38000n      0.       
  165.39000n      0.       
  165.40000n      0.       
  165.41000n      0.       
  165.42000n      0.       
  165.43000n      0.       
  165.44000n      0.       
  165.45000n      0.       
  165.46000n      0.       
  165.47000n      0.       
  165.48000n      0.       
  165.49000n      0.       
  165.50000n      0.       
  165.51000n      0.       
  165.52000n      0.       
  165.53000n      0.       
  165.54000n      0.       
  165.55000n      0.       
  165.56000n      0.       
  165.57000n      0.       
  165.58000n      0.       
  165.59000n      0.       
  165.60000n      0.       
  165.61000n      0.       
  165.62000n      0.       
  165.63000n      0.       
  165.64000n      0.       
  165.65000n      0.       
  165.66000n      0.       
  165.67000n      0.       
  165.68000n      0.       
  165.69000n      0.       
  165.70000n      0.       
  165.71000n      0.       
  165.72000n      0.       
  165.73000n      0.       
  165.74000n      0.       
  165.75000n      0.       
  165.76000n      0.       
  165.77000n      0.       
  165.78000n      0.       
  165.79000n      0.       
  165.80000n      0.       
  165.81000n      0.       
  165.82000n      0.       
  165.83000n      0.       
  165.84000n      0.       
  165.85000n      0.       
  165.86000n      0.       
  165.87000n      0.       
  165.88000n      0.       
  165.89000n      0.       
  165.90000n      0.       
  165.91000n      0.       
  165.92000n      0.       
  165.93000n      0.       
  165.94000n      0.       
  165.95000n      0.       
  165.96000n      0.       
  165.97000n      0.       
  165.98000n      0.       
  165.99000n      0.       
  166.00000n      0.       
  166.01000n      0.       
  166.02000n      0.       
  166.03000n      0.       
  166.04000n      0.       
  166.05000n      0.       
  166.06000n      0.       
  166.07000n      0.       
  166.08000n      0.       
  166.09000n      0.       
  166.10000n      0.       
  166.11000n      0.       
  166.12000n      0.       
  166.13000n      0.       
  166.14000n      0.       
  166.15000n      0.       
  166.16000n      0.       
  166.17000n      0.       
  166.18000n      0.       
  166.19000n      0.       
  166.20000n      0.       
  166.21000n      0.       
  166.22000n      0.       
  166.23000n      0.       
  166.24000n      0.       
  166.25000n      0.       
  166.26000n      0.       
  166.27000n      0.       
  166.28000n      0.       
  166.29000n      0.       
  166.30000n      0.       
  166.31000n      0.       
  166.32000n      0.       
  166.33000n      0.       
  166.34000n      0.       
  166.35000n      0.       
  166.36000n      0.       
  166.37000n      0.       
  166.38000n      0.       
  166.39000n      0.       
  166.40000n      0.       
  166.41000n      0.       
  166.42000n      0.       
  166.43000n      0.       
  166.44000n      0.       
  166.45000n      0.       
  166.46000n      0.       
  166.47000n      0.       
  166.48000n      0.       
  166.49000n      0.       
  166.50000n      0.       
  166.51000n      0.       
  166.52000n      0.       
  166.53000n      0.       
  166.54000n      0.       
  166.55000n      0.       
  166.56000n      0.       
  166.57000n      0.       
  166.58000n      0.       
  166.59000n      0.       
  166.60000n      0.       
  166.61000n      0.       
  166.62000n      0.       
  166.63000n      0.       
  166.64000n      0.       
  166.65000n      0.       
  166.66000n      0.       
  166.67000n      0.       
  166.68000n      0.       
  166.69000n      0.       
  166.70000n      0.       
  166.71000n      0.       
  166.72000n      0.       
  166.73000n      0.       
  166.74000n      0.       
  166.75000n      0.       
  166.76000n      0.       
  166.77000n      0.       
  166.78000n      0.       
  166.79000n      0.       
  166.80000n      0.       
  166.81000n      0.       
  166.82000n      0.       
  166.83000n      0.       
  166.84000n      0.       
  166.85000n      0.       
  166.86000n      0.       
  166.87000n      0.       
  166.88000n      0.       
  166.89000n      0.       
  166.90000n      0.       
  166.91000n      0.       
  166.92000n      0.       
  166.93000n      0.       
  166.94000n      0.       
  166.95000n      0.       
  166.96000n      0.       
  166.97000n      0.       
  166.98000n      0.       
  166.99000n      0.       
  167.00000n      0.       
  167.01000n      0.       
  167.02000n      0.       
  167.03000n      0.       
  167.04000n      0.       
  167.05000n      0.       
  167.06000n      0.       
  167.07000n      0.       
  167.08000n      0.       
  167.09000n      0.       
  167.10000n      0.       
  167.11000n      0.       
  167.12000n      0.       
  167.13000n      0.       
  167.14000n      0.       
  167.15000n      0.       
  167.16000n      0.       
  167.17000n      0.       
  167.18000n      0.       
  167.19000n      0.       
  167.20000n      0.       
  167.21000n      0.       
  167.22000n      0.       
  167.23000n      0.       
  167.24000n      0.       
  167.25000n      0.       
  167.26000n      0.       
  167.27000n      0.       
  167.28000n      0.       
  167.29000n      0.       
  167.30000n      0.       
  167.31000n      0.       
  167.32000n      0.       
  167.33000n      0.       
  167.34000n      0.       
  167.35000n      0.       
  167.36000n      0.       
  167.37000n      0.       
  167.38000n      0.       
  167.39000n      0.       
  167.40000n      0.       
  167.41000n      0.       
  167.42000n      0.       
  167.43000n      0.       
  167.44000n      0.       
  167.45000n      0.       
  167.46000n      0.       
  167.47000n      0.       
  167.48000n      0.       
  167.49000n      0.       
  167.50000n      0.       
  167.51000n      0.       
  167.52000n      0.       
  167.53000n      0.       
  167.54000n      0.       
  167.55000n      0.       
  167.56000n      0.       
  167.57000n      0.       
  167.58000n      0.       
  167.59000n      0.       
  167.60000n      0.       
  167.61000n      0.       
  167.62000n      0.       
  167.63000n      0.       
  167.64000n      0.       
  167.65000n      0.       
  167.66000n      0.       
  167.67000n      0.       
  167.68000n      0.       
  167.69000n      0.       
  167.70000n      0.       
  167.71000n      0.       
  167.72000n      0.       
  167.73000n      0.       
  167.74000n      0.       
  167.75000n      0.       
  167.76000n      0.       
  167.77000n      0.       
  167.78000n      0.       
  167.79000n      0.       
  167.80000n      0.       
  167.81000n      0.       
  167.82000n      0.       
  167.83000n      0.       
  167.84000n      0.       
  167.85000n      0.       
  167.86000n      0.       
  167.87000n      0.       
  167.88000n      0.       
  167.89000n      0.       
  167.90000n      0.       
  167.91000n      0.       
  167.92000n      0.       
  167.93000n      0.       
  167.94000n      0.       
  167.95000n      0.       
  167.96000n      0.       
  167.97000n      0.       
  167.98000n      0.       
  167.99000n      0.       
  168.00000n      0.       
  168.01000n      0.       
  168.02000n      0.       
  168.03000n      0.       
  168.04000n      0.       
  168.05000n      0.       
  168.06000n      0.       
  168.07000n      0.       
  168.08000n      0.       
  168.09000n      0.       
  168.10000n      0.       
  168.11000n      0.       
  168.12000n      0.       
  168.13000n      0.       
  168.14000n      0.       
  168.15000n      0.       
  168.16000n      0.       
  168.17000n      0.       
  168.18000n      0.       
  168.19000n      0.       
  168.20000n      0.       
  168.21000n      0.       
  168.22000n      0.       
  168.23000n      0.       
  168.24000n      0.       
  168.25000n      0.       
  168.26000n      0.       
  168.27000n      0.       
  168.28000n      0.       
  168.29000n      0.       
  168.30000n      0.       
  168.31000n      0.       
  168.32000n      0.       
  168.33000n      0.       
  168.34000n      0.       
  168.35000n      0.       
  168.36000n      0.       
  168.37000n      0.       
  168.38000n      0.       
  168.39000n      0.       
  168.40000n      0.       
  168.41000n      0.       
  168.42000n      0.       
  168.43000n      0.       
  168.44000n      0.       
  168.45000n      0.       
  168.46000n      0.       
  168.47000n      0.       
  168.48000n      0.       
  168.49000n      0.       
  168.50000n      0.       
  168.51000n      0.       
  168.52000n      0.       
  168.53000n      0.       
  168.54000n      0.       
  168.55000n      0.       
  168.56000n      0.       
  168.57000n      0.       
  168.58000n      0.       
  168.59000n      0.       
  168.60000n      0.       
  168.61000n      0.       
  168.62000n      0.       
  168.63000n      0.       
  168.64000n      0.       
  168.65000n      0.       
  168.66000n      0.       
  168.67000n      0.       
  168.68000n      0.       
  168.69000n      0.       
  168.70000n      0.       
  168.71000n      0.       
  168.72000n      0.       
  168.73000n      0.       
  168.74000n      0.       
  168.75000n      0.       
  168.76000n      0.       
  168.77000n      0.       
  168.78000n      0.       
  168.79000n      0.       
  168.80000n      0.       
  168.81000n      0.       
  168.82000n      0.       
  168.83000n      0.       
  168.84000n      0.       
  168.85000n      0.       
  168.86000n      0.       
  168.87000n      0.       
  168.88000n      0.       
  168.89000n      0.       
  168.90000n      0.       
  168.91000n      0.       
  168.92000n      0.       
  168.93000n      0.       
  168.94000n      0.       
  168.95000n      0.       
  168.96000n      0.       
  168.97000n      0.       
  168.98000n      0.       
  168.99000n      0.       
  169.00000n      0.       
  169.01000n      0.       
  169.02000n      0.       
  169.03000n      0.       
  169.04000n      0.       
  169.05000n      0.       
  169.06000n      0.       
  169.07000n      0.       
  169.08000n      0.       
  169.09000n      0.       
  169.10000n      0.       
  169.11000n      0.       
  169.12000n      0.       
  169.13000n      0.       
  169.14000n      0.       
  169.15000n      0.       
  169.16000n      0.       
  169.17000n      0.       
  169.18000n      0.       
  169.19000n      0.       
  169.20000n      0.       
  169.21000n      0.       
  169.22000n      0.       
  169.23000n      0.       
  169.24000n      0.       
  169.25000n      0.       
  169.26000n      0.       
  169.27000n      0.       
  169.28000n      0.       
  169.29000n      0.       
  169.30000n      0.       
  169.31000n      0.       
  169.32000n      0.       
  169.33000n      0.       
  169.34000n      0.       
  169.35000n      0.       
  169.36000n      0.       
  169.37000n      0.       
  169.38000n      0.       
  169.39000n      0.       
  169.40000n      0.       
  169.41000n      0.       
  169.42000n      0.       
  169.43000n      0.       
  169.44000n      0.       
  169.45000n      0.       
  169.46000n      0.       
  169.47000n      0.       
  169.48000n      0.       
  169.49000n      0.       
  169.50000n      0.       
  169.51000n      0.       
  169.52000n      0.       
  169.53000n      0.       
  169.54000n      0.       
  169.55000n      0.       
  169.56000n      0.       
  169.57000n      0.       
  169.58000n      0.       
  169.59000n      0.       
  169.60000n      0.       
  169.61000n      0.       
  169.62000n      0.       
  169.63000n      0.       
  169.64000n      0.       
  169.65000n      0.       
  169.66000n      0.       
  169.67000n      0.       
  169.68000n      0.       
  169.69000n      0.       
  169.70000n      0.       
  169.71000n      0.       
  169.72000n      0.       
  169.73000n      0.       
  169.74000n      0.       
  169.75000n      0.       
  169.76000n      0.       
  169.77000n      0.       
  169.78000n      0.       
  169.79000n      0.       
  169.80000n      0.       
  169.81000n      0.       
  169.82000n      0.       
  169.83000n      0.       
  169.84000n      0.       
  169.85000n      0.       
  169.86000n      0.       
  169.87000n      0.       
  169.88000n      0.       
  169.89000n      0.       
  169.90000n      0.       
  169.91000n      0.       
  169.92000n      0.       
  169.93000n      0.       
  169.94000n      0.       
  169.95000n      0.       
  169.96000n      0.       
  169.97000n      0.       
  169.98000n      0.       
  169.99000n      0.       
  170.00000n      0.       
y

          ***** job concluded
1****** HSPICE -- D-2010.03-SP1 32-BIT (May 26 2010) winnt ******               
 ******  
 first line of the netlist must be blank.

  ******  job statistics summary tnom=  25.000 temp=  25.000 *****

  ******  HSPICE Threads Information  ******

  Command Line Threads Count                  :     1
  Available CPU Count                         :     4
  Actual Model Evaluation(Load) Threads Count :     1
  Actual Solver Threads Count                 :     1


  ******  Circuit Statistics  ******
  # nodes       =      65 # elements   =      28
  # resistors   =       0 # capacitors =       0 # inductors   =       0
  # mutual_inds =       0 # vccs       =       0 # vcvs        =       0
  # cccs        =       0 # ccvs       =       0 # volt_srcs   =       4
  # curr_srcs   =       0 # diodes     =       0 # bjts        =       0
  # jfets       =       0 # mosfets    =      24 # U elements  =       0
  # T elements  =       0 # W elements =       0 # B elements  =       0
  # S elements  =       0 # P elements =       0 # va device   =       0


  ******  Runtime Statistics (seconds)  ******

  analysis           time    # points   tot. iter  conv.iter
  op point           0.01           1          21
  transient          0.33       17001        4661        1571 rev=        77
  readin             0.11
  errchk             0.02
  setup              0.02
  output             0.07


           total memory used          654  kbytes
           total cpu time            0.56 seconds
           total elapsed time        0.61 seconds
           job started at     15:22:17 12/02/2014
           job ended   at     15:22:18 12/02/2014


  lic: Release hspice token(s) 
