 ****** HSPICE -- D-2010.03-SP1 32-BIT (May 26 2010) winnt ******               
  Copyright (C) 2010 Synopsys, Inc. All Rights Reserved.                        
  Unpublished-rights reserved under US copyright laws.
  This program is protected by law and is subject to the 
  terms and conditions of the license agreement from Synopsys.
  Use of this program is your acceptance to be bound by the 
  license agreement. HSPICE is the trademark of Synopsys, Inc.
  Input File: d:\digital electronic\projects\ca_1\question_1_parts_a_b_beta_2\q1
  lic:  
  lic: FLEXlm: v8.5b 
  lic: USER:   HP                   HOSTNAME: ProBook 
  lic: HOSTID: "00090faa0001 56db30007c95 16db30007c95 a4db30007c95 a45d36cb5ab9
  
  lic: Using FLEXlm license file: 
  lic: 27000@elena 
  lic: Checkout 1 hspice 
  lic: License/Maintenance for hspice will expire on 31-dec-2020/2007.9 
  lic: NODE LOCKED license on hostid "00090faa0001 56db30007c95 16db30007c95 a4d
 b
  lic:   
 Init: read install configuration file: C:\synopsys\Hspice_D-2010.03-SP1\meta.cfg
1****** HSPICE -- D-2010.03-SP1 32-BIT (May 26 2010) winnt ******               
 ******  
 first line of the netlist must be blank.

  ******  mos   model parameters tnom=  25.000 temp=  25.000 *****
 
Model Name: nmos  

 BSIM4 Model (Level 54)

    MOBMOD = 0
    BINUNIT = 1
    PARAMCHK = 1
    CAPMOD = 2
    DIOMOD = 1
    RDSMOD = 0
    TRNQSMOD = 0
    ACNQSMOD = 0
    RBODYMOD = 1
    RGATEMOD = 1
    PERMOD = 1
    GEOMOD = 1
    RGEOMOD = 0
    FNOIMOD = 1
    TNOIMOD = 0
    IGCMOD = 1
    IGBMOD = 1
    STIMOD = 0
    VERSION =      4 
    TOXREF = 1.75e-009 
    TOXE = 1.75e-009 
    TOXP = 1.1e-009 
    TOXM = 1.75e-009 
    DTOX = 6.5e-010 
    EPSROX =    3.9 
    CDSC =      0 
    CDSCB =      0 
    CDSCD =      0 
    CIT =      0 
    NFACTOR =    2.1 
    XJ = 1.4e-008 
    VSAT = 1.474e+005 
    A0 =      1 
    AGS = 1e-020 
    A1 =      0 
    A2 =      1 
    AT = 3.3e+004 
    KETA =   0.04 
    NSUB = 6e+016 
    NDEP = 3.28e+018 
    NSD = 2e+020 
    NGATE = 2e+020 
    GAMMA1 =      0 
    GAMMA2 =      0 
    VBX =      0 
    VBM =     -3 
    XT = 1.55e-007 
    K1 =  0.528 
    KT1 =  -0.11 
    KT1L =      0 
    KT2 =  0.022 
    K2 =   0.01 
    K3 =      0 
    K3B =      0 
    LPE0 =      0 
    LPEB =      0 
    DVTP0 = 1e-009 
    DVTP1 =    0.1 
    W0 = 2.5e-006 
    DVT0 =      1 
    DVT1 =      2 
    DVT2 = -0.032 
    DVT0W =      0 
    DVT1W =      0 
    DVT2W =      0 
    DROUT =    0.5 
    DSUB =    0.1 
    VTH0 =  0.469 
    EU =   1.67 
    UA = 6e-010 
    UA1 = 4.31e-009 
    UB = 1.2e-018 
    UB1 = 7.61e-018 
    UC =      0 
    UC1 = -5.6e-011 
    U0 = 0.04372 
    UTE =   -1.5 
    VOFF =  -0.13 
    VOFFL =      0 
    MINV =   0.05 
    FPROUT =    0.2 
    PDITS =   0.08 
    PDITSD =   0.23 
    PDITSL = 2.3e+006 
    DELTA =   0.01 
    RDSW =    155 
    RDSWMIN =      0 
    RDWMIN =      0 
    RSWMIN =      0 
    RDW =     85 
    RSW =     85 
    PRWG =      0 
    PRWB = 6.8e-011 
    PRT =      0 
    ETA0 = 0.0049 
    ETAB =      0 
    PCLM =   0.04 
    PDIBLC1 =  0.001 
    PDIBLC2 =  0.001 
    PDIBLCB = -0.005 
    PSCBE1 = 8.14e+008 
    PSCBE2 = 1e-007 
    PVAG = 1e-020 
    WR =      1 
    DWG =      0 
    DWB =      0 
    XW =      0 
    XWREF =      0 
    XL = -2e-008 
    XLREF = -2e-008 
    B0 =      0 
    B1 =      0 
    ALPHA0 =  0.074 
    ALPHA1 =  0.005 
    AGIDL = 0.0002 
    BGIDL = 2.1e+009 
    CGIDL = 0.0002 
    PHIN =      0 
    EGIDL =    0.8 
    AIGC =  0.012 
    BIGC = 0.0028 
    CIGC =  0.002 
    AIGSD =  0.012 
    BIGSD = 0.0028 
    CIGSD =  0.002 
    AIGBACC =  0.012 
    BIGBACC = 0.0028 
    CIGBACC =  0.002 
    AIGBINV =  0.014 
    BIGBINV =  0.004 
    CIGBINV =  0.004 
    NIGC =      1 
    NIGBINV =      3 
    NIGBACC =      1 
    NTOX =      1 
    EIGBINV =    1.1 
    PIGCD =      1 
    POXEDGE =      1 
    XRCRG1 =     12 
    TNOIA =    1.5 
    TNOIB =    3.5 
    NTNOI =      1 
    XRCRG2 =      5 
    BETA0 =     30 
    IJTHDFWD =   0.01 
    IJTHSFWD =   0.01 
    IJTHDREV =  0.001 
    IJTHSREV =  0.001 
    XJBVD =      1 
    XJBVS =      1 
    BVD =     10 
    BVS =     10 
    VFB =  -0.55 
    GBMIN = 1e-010 
    RBDB =     15 
    RBPB =      5 
    RBSB =     15 
    RBPS =     15 
    RBPD =     15 
    CGSL = 2.653e-010 
    CGDL = 2.653e-010 
    CKAPPAS =   0.03 
    CKAPPAD =   0.03 
    CF = 1.195e-010 
    CLC = 1e-007 
    CLE =    0.6 
    DWC = 5e-009 
    DLC = 3.75e-009 
    DLCIG = 3.75e-009 
    DWJ =      0 
    VFBCV =     -1 
    ACDE =      1 
    MOIN =     15 
    NOFF =    0.9 
    VOFFCV =   0.02 
    DMCG =      0 
    DMCI =      0 
    DMDG =      0 
    DMCGT =      0 
    XGW =      0 
    XGL =      0 
    RSHG =    0.4 
    NGCON =      1 
    TCJ =  0.001 
    TPB =  0.005 
    TCJSW =  0.001 
    TPBSW =  0.005 
    TCJSWG =  0.001 
    TPBSWG =  0.005 
    SK0 =      0 
    SK1 =      0 
    SK2 =      0 
    SL = 2e-006 
    SW = 2e-006 
    K =      0 
    TNOM =  300.1 
    CGSO = 1.1e-010 
    CGDO = 1.1e-010 
    CGBO = 2.56e-011 
    XPART =      0 
    RSH =      5 
    JSS = 0.0001 
    JSWS = 1e-011 
    JSWGS = 1e-010 
    PBS =      1 
    MJS =    0.5 
    PBSWS =      1 
    MJSWS =   0.33 
    CJS = 0.0005 
    CJSWS = 5e-010 
    NJS =      1 
    PBSWGS =      1 
    MJSWGS =   0.33 
    CJSWGS = 3e-010 
    XTIS =      3 
    JSD = 0.0001 
    JSWD = 1e-011 
    JSWGD = 1e-010 
    PBD =      1 
    MJD =    0.5 
    PBSWD =      1 
    MJSWD =   0.33 
    CJD = 0.0005 
    CJSWD = 5e-010 
    NJD =      1 
    PBSWGD =      1 
    MJSWGD =   0.33 
    CJSWGD = 5e-010 
    XTID =      3 
    LMLT =      1 
    WMLT =      1 
    LINT = 3.75e-009 
    LL =      0 
    LLC =      0 
    LLN =      1 
    LW =      0 
    LWC =      0 
    LWN =      1 
    LWL =      0 
    LWLC =      0 
    LMIN =      0 
    LMAX =      1 
    WINT = 5e-009 
    WL =      0 
    WLC =      0 
    WLN =      1 
    WW =      0 
    WWC =      0 
    WWN =      1 
    WWL =      0 
    WWLC =      0 
    WMIN =      0 
    WMAX =      1 
    NOIA = 6.25e+041 
    NOIB = 3.125e+026 
    NOIC = 8.75e+009 
    EM = 4.1e+007 
    EF =      1 
    AF =      1 
    KF =      0 
    TRS =      0 
    TRD =      0 
 

 
Model Name: pmos  

 BSIM4 Model (Level 54)

    MOBMOD = 0
    BINUNIT = 1
    PARAMCHK = 1
    CAPMOD = 2
    DIOMOD = 1
    RDSMOD = 0
    TRNQSMOD = 0
    ACNQSMOD = 0
    RBODYMOD = 1
    RGATEMOD = 1
    PERMOD = 1
    GEOMOD = 1
    RGEOMOD = 0
    FNOIMOD = 1
    TNOIMOD = 0
    IGCMOD = 1
    IGBMOD = 1
    STIMOD = 0
    VERSION =      4 
    TOXREF = 1.85e-009 
    TOXE = 1.85e-009 
    TOXP = 1.1e-009 
    TOXM = 1.85e-009 
    DTOX = 7.5e-010 
    EPSROX =    3.9 
    CDSC =      0 
    CDSCB =      0 
    CDSCD =      0 
    CIT =      0 
    NFACTOR =    2.1 
    XJ = 1.4e-008 
    VSAT = 7e+004 
    A0 =      1 
    AGS = 1e-020 
    A1 =      0 
    A2 =      1 
    AT = 3.3e+004 
    KETA = -0.047 
    NSUB = 6e+016 
    NDEP = 2.5e+018 
    NSD = 2e+020 
    NGATE = 2e+020 
    GAMMA1 =      0 
    GAMMA2 =      0 
    VBX =      0 
    VBM =     -3 
    XT = 1.55e-007 
    K1 =  0.488 
    KT1 =  -0.11 
    KT1L =      0 
    KT2 =  0.022 
    K2 =  -0.01 
    K3 =      0 
    K3B =      0 
    LPE0 =      0 
    LPEB =      0 
    DVTP0 = 1e-009 
    DVTP1 =   0.05 
    W0 = 2.5e-006 
    DVT0 =      1 
    DVT1 =      2 
    DVT2 = -0.032 
    DVT0W =      0 
    DVT1W =      0 
    DVT2W =      0 
    DROUT =   0.56 
    DSUB =    0.1 
    VTH0 = -0.418 
    EU =      1 
    UA = 2e-009 
    UA1 = 4.31e-009 
    UB = 5e-019 
    UB1 = 7.61e-018 
    UC =      0 
    UC1 = -5.6e-011 
    U0 = 0.00439 
    UTE =   -1.5 
    VOFF = -0.126 
    VOFFL =      0 
    MINV =   0.05 
    FPROUT =    0.2 
    PDITS =   0.08 
    PDITSD =   0.23 
    PDITSL = 2.3e+006 
    DELTA =   0.01 
    RDSW =    155 
    RDSWMIN =      0 
    RDWMIN =      0 
    RSWMIN =      0 
    RDW =     85 
    RSW =     85 
    PRWG = 3.22e-008 
    PRWB = 6.8e-011 
    PRT =      0 
    ETA0 = 0.0049 
    ETAB =      0 
    PCLM =   0.12 
    PDIBLC1 =  0.001 
    PDIBLC2 =  0.001 
    PDIBLCB = 3.4e-008 
    PSCBE1 = 8.14e+008 
    PSCBE2 = 9.58e-007 
    PVAG = 1e-020 
    WR =      1 
    DWG =      0 
    DWB =      0 
    XW =      0 
    XWREF =      0 
    XL = -2e-008 
    XLREF = -2e-008 
    B0 = -1e-020 
    B1 =      0 
    ALPHA0 =  0.074 
    ALPHA1 =  0.005 
    AGIDL = 0.0002 
    BGIDL = 2.1e+009 
    CGIDL = 0.0002 
    PHIN =      0 
    EGIDL =    0.8 
    AIGC =   0.69 
    BIGC = 0.0012 
    CIGC = 0.0008 
    AIGSD = 0.0087 
    BIGSD = 0.0012 
    CIGSD = 0.0008 
    AIGBACC =  0.012 
    BIGBACC = 0.0028 
    CIGBACC =  0.002 
    AIGBINV =  0.014 
    BIGBINV =  0.004 
    CIGBINV =  0.004 
    NIGC =      1 
    NIGBINV =      3 
    NIGBACC =      1 
    NTOX =      1 
    EIGBINV =    1.1 
    PIGCD =      1 
    POXEDGE =      1 
    XRCRG1 =     12 
    TNOIA =    1.5 
    TNOIB =    3.5 
    NTNOI =      1 
    XRCRG2 =      5 
    BETA0 =     30 
    IJTHDFWD =   0.01 
    IJTHSFWD =   0.01 
    IJTHDREV =  0.001 
    IJTHSREV =  0.001 
    XJBVD =      1 
    XJBVS =      1 
    BVD =     10 
    BVS =     10 
    VFB =   0.55 
    GBMIN = 1e-010 
    RBDB =     15 
    RBPB =      5 
    RBSB =     15 
    RBPS =     15 
    RBPD =     15 
    CGSL = 2.653e-010 
    CGDL = 2.653e-010 
    CKAPPAS =   0.03 
    CKAPPAD =   0.03 
    CF = 1.183e-010 
    CLC = 1e-007 
    CLE =    0.6 
    DWC = 5e-009 
    DLC = 3.75e-009 
    DLCIG = 3.75e-009 
    DWJ =      0 
    VFBCV =     -1 
    ACDE =      1 
    MOIN =     15 
    NOFF =    0.9 
    VOFFCV =   0.02 
    DMCG =      0 
    DMCI =      0 
    DMDG =      0 
    DMCGT =      0 
    XGW =      0 
    XGL =      0 
    RSHG =    0.4 
    NGCON =      1 
    TCJ =  0.001 
    TPB =  0.005 
    TCJSW =  0.001 
    TPBSW =  0.005 
    TCJSWG =  0.001 
    TPBSWG =  0.005 
    SK0 =      0 
    SK1 =      0 
    SK2 =      0 
    SL = 2e-006 
    SW = 2e-006 
    K =      0 
    TNOM =  300.1 
    CGSO = 1.1e-010 
    CGDO = 1.1e-010 
    CGBO = 2.56e-011 
    XPART =      0 
    RSH =      5 
    JSS = 0.0001 
    JSWS = 1e-011 
    JSWGS = 1e-010 
    PBS =      1 
    MJS =    0.5 
    PBSWS =      1 
    MJSWS =   0.33 
    CJS = 0.0005 
    CJSWS = 5e-010 
    NJS =      1 
    PBSWGS =      1 
    MJSWGS =   0.33 
    CJSWGS = 3e-010 
    XTIS =      3 
    JSD = 0.0001 
    JSWD = 1e-011 
    JSWGD = 1e-010 
    PBD =      1 
    MJD =    0.5 
    PBSWD =      1 
    MJSWD =   0.33 
    CJD = 0.0005 
    CJSWD = 5e-010 
    NJD =      1 
    PBSWGD =      1 
    MJSWGD =   0.33 
    CJSWGD = 5e-010 
    XTID =      3 
    LMLT =      1 
    WMLT =      1 
    LINT = 3.75e-009 
    LL =      0 
    LLC =      0 
    LLN =      1 
    LW =      0 
    LWC =      0 
    LWN =      1 
    LWL =      0 
    LWLC =      0 
    LMIN =      0 
    LMAX =      1 
    WINT = 5e-009 
    WL =      0 
    WLC =      0 
    WLN =      1 
    WW =      0 
    WWC =      0 
    WWN =      1 
    WWL =      0 
    WWLC =      0 
    WMIN =      0 
    WMAX =      1 
    NOIA = 6.188e+040 
    NOIB = 1.5e+025 
    NOIC = 8.75e+009 
    EM = 4.1e+007 
    EF =      1 
    AF =      1 
    KF =      0 
    TRS =      0 
    TRD =      0 
 

 Warning:  Acde = 1 may be too small in BSIM4 model nmos with w=9e-008 l=4.5e-008.

 Warning: (B1 + Weff) may be too small in BSIM4 model nmos with w=9e-008 l=4.5e-008.

 Warning:  Acde = 1 may be too small in BSIM4 model pmos with w=1.8e-007 l=4.5e-008.

 
      
 *****************************************************************
 ******  option summary
 ******
 runlvl  = 3         bypass  = 2         
 Warning:  Acde = 1 may be too small in BSIM4 model nmos with w=9e-008 l=4.5e-008.

 Warning: (B1 + Weff) may be too small in BSIM4 model nmos with w=9e-008 l=4.5e-008.

 Warning:  Acde = 1 may be too small in BSIM4 model pmos with w=1.8e-007 l=4.5e-008.

 ******  
 first line of the netlist must be blank.

  ******  dc transfer curves tnom=  25.000 temp=  27.000 *****
x

        volt    voltage    
                    out    
   10.00000m    999.9495m  
   11.00000m    999.9482m  
   12.00000m    999.9470m  
   13.00000m    999.9457m  
   14.00000m    999.9444m  
   15.00000m    999.9431m  
   16.00000m    999.9417m  
   17.00000m    999.9403m  
   18.00000m    999.9388m  
   19.00000m    999.9373m  
   20.00000m    999.9358m  
   21.00000m    999.9343m  
   22.00000m    999.9327m  
   23.00000m    999.9310m  
   24.00000m    999.9293m  
   25.00000m    999.9276m  
   26.00000m    999.9259m  
   27.00000m    999.9241m  
   28.00000m    999.9222m  
   29.00000m    999.9203m  
   30.00000m    999.9184m  
   31.00000m    999.9164m  
   32.00000m    999.9144m  
   33.00000m    999.9123m  
   34.00000m    999.9101m  
   35.00000m    999.9079m  
   36.00000m    999.9057m  
   37.00000m    999.9034m  
   38.00000m    999.9010m  
   39.00000m    999.8986m  
   40.00000m    999.8961m  
   41.00000m    999.8936m  
   42.00000m    999.8910m  
   43.00000m    999.8883m  
   44.00000m    999.8856m  
   45.00000m    999.8828m  
   46.00000m    999.8800m  
   47.00000m    999.8770m  
   48.00000m    999.8740m  
   49.00000m    999.8710m  
   50.00000m    999.8678m  
   51.00000m    999.8646m  
   52.00000m    999.8613m  
   53.00000m    999.8579m  
   54.00000m    999.8544m  
   55.00000m    999.8509m  
   56.00000m    999.8473m  
   57.00000m    999.8435m  
   58.00000m    999.8397m  
   59.00000m    999.8358m  
   60.00000m    999.8318m  
   61.00000m    999.8277m  
   62.00000m    999.8235m  
   63.00000m    999.8192m  
   64.00000m    999.8148m  
   65.00000m    999.8103m  
   66.00000m    999.8057m  
   67.00000m    999.8010m  
   68.00000m    999.7961m  
   69.00000m    999.7912m  
   70.00000m    999.7861m  
   71.00000m    999.7809m  
   72.00000m    999.7756m  
   73.00000m    999.7701m  
   74.00000m    999.7645m  
   75.00000m    999.7588m  
   76.00000m    999.7530m  
   77.00000m    999.7470m  
   78.00000m    999.7409m  
   79.00000m    999.7346m  
   80.00000m    999.7282m  
   81.00000m    999.7216m  
   82.00000m    999.7149m  
   83.00000m    999.7080m  
   84.00000m    999.7009m  
   85.00000m    999.6937m  
   86.00000m    999.6863m  
   87.00000m    999.6787m  
   88.00000m    999.6709m  
   89.00000m    999.6630m  
   90.00000m    999.6549m  
   91.00000m    999.6466m  
   92.00000m    999.6381m  
   93.00000m    999.6294m  
   94.00000m    999.6204m  
   95.00000m    999.6113m  
   96.00000m    999.6020m  
   97.00000m    999.5924m  
   98.00000m    999.5826m  
   99.00000m    999.5726m  
  100.00000m    999.5624m  
  101.00000m    999.5519m  
  102.00000m    999.5412m  
  103.00000m    999.5302m  
  104.00000m    999.5190m  
  105.00000m    999.5075m  
  106.00000m    999.4957m  
  107.00000m    999.4837m  
  108.00000m    999.4714m  
  109.00000m    999.4588m  
  110.00000m    999.4459m  
  111.00000m    999.4327m  
  112.00000m    999.4192m  
  113.00000m    999.4054m  
  114.00000m    999.3913m  
  115.00000m    999.3768m  
  116.00000m    999.3621m  
  117.00000m    999.3469m  
  118.00000m    999.3315m  
  119.00000m    999.3156m  
  120.00000m    999.2995m  
  121.00000m    999.2829m  
  122.00000m    999.2660m  
  123.00000m    999.2487m  
  124.00000m    999.2310m  
  125.00000m    999.2128m  
  126.00000m    999.1943m  
  127.00000m    999.1754m  
  128.00000m    999.1560m  
  129.00000m    999.1362m  
  130.00000m    999.1159m  
  131.00000m    999.0952m  
  132.00000m    999.0740m  
  133.00000m    999.0523m  
  134.00000m    999.0301m  
  135.00000m    999.0075m  
  136.00000m    998.9843m  
  137.00000m    998.9606m  
  138.00000m    998.9364m  
  139.00000m    998.9116m  
  140.00000m    998.8863m  
  141.00000m    998.8604m  
  142.00000m    998.8340m  
  143.00000m    998.8069m  
  144.00000m    998.7793m  
  145.00000m    998.7510m  
  146.00000m    998.7221m  
  147.00000m    998.6926m  
  148.00000m    998.6624m  
  149.00000m    998.6316m  
  150.00000m    998.6000m  
  151.00000m    998.5678m  
  152.00000m    998.5349m  
  153.00000m    998.5012m  
  154.00000m    998.4668m  
  155.00000m    998.4316m  
  156.00000m    998.3957m  
  157.00000m    998.3590m  
  158.00000m    998.3215m  
  159.00000m    998.2831m  
  160.00000m    998.2440m  
  161.00000m    998.2039m  
  162.00000m    998.1630m  
  163.00000m    998.1213m  
  164.00000m    998.0786m  
  165.00000m    998.0350m  
  166.00000m    997.9904m  
  167.00000m    997.9449m  
  168.00000m    997.8984m  
  169.00000m    997.8510m  
  170.00000m    997.8024m  
  171.00000m    997.7529m  
  172.00000m    997.7023m  
  173.00000m    997.6506m  
  174.00000m    997.5978m  
  175.00000m    997.5439m  
  176.00000m    997.4888m  
  177.00000m    997.4326m  
  178.00000m    997.3752m  
  179.00000m    997.3165m  
  180.00000m    997.2567m  
  181.00000m    997.1955m  
  182.00000m    997.1331m  
  183.00000m    997.0693m  
  184.00000m    997.0043m  
  185.00000m    996.9378m  
  186.00000m    996.8700m  
  187.00000m    996.8007m  
  188.00000m    996.7300m  
  189.00000m    996.6579m  
  190.00000m    996.5842m  
  191.00000m    996.5090m  
  192.00000m    996.4322m  
  193.00000m    996.3539m  
  194.00000m    996.2739m  
  195.00000m    996.1923m  
  196.00000m    996.1090m  
  197.00000m    996.0240m  
  198.00000m    995.9372m  
  199.00000m    995.8487m  
  200.00000m    995.7584m  
  201.00000m    995.6662m  
  202.00000m    995.5722m  
  203.00000m    995.4762m  
  204.00000m    995.3783m  
  205.00000m    995.2784m  
  206.00000m    995.1765m  
  207.00000m    995.0726m  
  208.00000m    994.9665m  
  209.00000m    994.8583m  
  210.00000m    994.7480m  
  211.00000m    994.6354m  
  212.00000m    994.5206m  
  213.00000m    994.4035m  
  214.00000m    994.2841m  
  215.00000m    994.1623m  
  216.00000m    994.0381m  
  217.00000m    993.9115m  
  218.00000m    993.7823m  
  219.00000m    993.6506m  
  220.00000m    993.5164m  
  221.00000m    993.3794m  
  222.00000m    993.2399m  
  223.00000m    993.0975m  
  224.00000m    992.9525m  
  225.00000m    992.8046m  
  226.00000m    992.6538m  
  227.00000m    992.5001m  
  228.00000m    992.3435m  
  229.00000m    992.1838m  
  230.00000m    992.0211m  
  231.00000m    991.8552m  
  232.00000m    991.6862m  
  233.00000m    991.5139m  
  234.00000m    991.3384m  
  235.00000m    991.1595m  
  236.00000m    990.9773m  
  237.00000m    990.7916m  
  238.00000m    990.6024m  
  239.00000m    990.4096m  
  240.00000m    990.2133m  
  241.00000m    990.0132m  
  242.00000m    989.8094m  
  243.00000m    989.6019m  
  244.00000m    989.3904m  
  245.00000m    989.1751m  
  246.00000m    988.9557m  
  247.00000m    988.7324m  
  248.00000m    988.5049m  
  249.00000m    988.2732m  
  250.00000m    988.0373m  
  251.00000m    987.7971m  
  252.00000m    987.5525m  
  253.00000m    987.3035m  
  254.00000m    987.0500m  
  255.00000m    986.7919m  
  256.00000m    986.5291m  
  257.00000m    986.2616m  
  258.00000m    985.9894m  
  259.00000m    985.7122m  
  260.00000m    985.4301m  
  261.00000m    985.1430m  
  262.00000m    984.8509m  
  263.00000m    984.5535m  
  264.00000m    984.2509m  
  265.00000m    983.9430m  
  266.00000m    983.6297m  
  267.00000m    983.3109m  
  268.00000m    982.9866m  
  269.00000m    982.6566m  
  270.00000m    982.3209m  
  271.00000m    981.9793m  
  272.00000m    981.6319m  
  273.00000m    981.2785m  
  274.00000m    980.9191m  
  275.00000m    980.5534m  
  276.00000m    980.1816m  
  277.00000m    979.8034m  
  278.00000m    979.4188m  
  279.00000m    979.0277m  
  280.00000m    978.6300m  
  281.00000m    978.2256m  
  282.00000m    977.8144m  
  283.00000m    977.3963m  
  284.00000m    976.9712m  
  285.00000m    976.5391m  
  286.00000m    976.0998m  
  287.00000m    975.6531m  
  288.00000m    975.1991m  
  289.00000m    974.7377m  
  290.00000m    974.2686m  
  291.00000m    973.7918m  
  292.00000m    973.3072m  
  293.00000m    972.8148m  
  294.00000m    972.3143m  
  295.00000m    971.8056m  
  296.00000m    971.2887m  
  297.00000m    970.7635m  
  298.00000m    970.2298m  
  299.00000m    969.6875m  
  300.00000m    969.1365m  
  301.00000m    968.5766m  
  302.00000m    968.0078m  
  303.00000m    967.4300m  
  304.00000m    966.8429m  
  305.00000m    966.2465m  
  306.00000m    965.6406m  
  307.00000m    965.0252m  
  308.00000m    964.4000m  
  309.00000m    963.7649m  
  310.00000m    963.1199m  
  311.00000m    962.4647m  
  312.00000m    961.7992m  
  313.00000m    961.1233m  
  314.00000m    960.4369m  
  315.00000m    959.7397m  
  316.00000m    959.0316m  
  317.00000m    958.3125m  
  318.00000m    957.5822m  
  319.00000m    956.8406m  
  320.00000m    956.0874m  
  321.00000m    955.3226m  
  322.00000m    954.5459m  
  323.00000m    953.7572m  
  324.00000m    952.9562m  
  325.00000m    952.1429m  
  326.00000m    951.3170m  
  327.00000m    950.4784m  
  328.00000m    949.6268m  
  329.00000m    948.7621m  
  330.00000m    947.8840m  
  331.00000m    946.9923m  
  332.00000m    946.0869m  
  333.00000m    945.1675m  
  334.00000m    944.2339m  
  335.00000m    943.2859m  
  336.00000m    942.3233m  
  337.00000m    941.3457m  
  338.00000m    940.3530m  
  339.00000m    939.3449m  
  340.00000m    938.3212m  
  341.00000m    937.2816m  
  342.00000m    936.2258m  
  343.00000m    935.1536m  
  344.00000m    934.0647m  
  345.00000m    932.9588m  
  346.00000m    931.8355m  
  347.00000m    930.6946m  
  348.00000m    929.5358m  
  349.00000m    928.3589m  
  350.00000m    927.1634m  
  351.00000m    925.9492m  
  352.00000m    924.7157m  
  353.00000m    923.4627m  
  354.00000m    922.1899m  
  355.00000m    920.8967m  
  356.00000m    919.5828m  
  357.00000m    918.2479m  
  358.00000m    916.8914m  
  359.00000m    915.5130m  
  360.00000m    914.1121m  
  361.00000m    912.6884m  
  362.00000m    911.2414m  
  363.00000m    909.7705m  
  364.00000m    908.2753m  
  365.00000m    906.7551m  
  366.00000m    905.2095m  
  367.00000m    903.6379m  
  368.00000m    902.0396m  
  369.00000m    900.4141m  
  370.00000m    898.7608m  
  371.00000m    897.0789m  
  372.00000m    895.3678m  
  373.00000m    893.6267m  
  374.00000m    891.8550m  
  375.00000m    890.0518m  
  376.00000m    888.2163m  
  377.00000m    886.3478m  
  378.00000m    884.4453m  
  379.00000m    882.5080m  
  380.00000m    880.5349m  
  381.00000m    878.5251m  
  382.00000m    876.4775m  
  383.00000m    874.3911m  
  384.00000m    872.2648m  
  385.00000m    870.0976m  
  386.00000m    867.8881m  
  387.00000m    865.6354m  
  388.00000m    863.3380m  
  389.00000m    860.9947m  
  390.00000m    858.6043m  
  391.00000m    856.1653m  
  392.00000m    853.6764m  
  393.00000m    851.1362m  
  394.00000m    848.5433m  
  395.00000m    845.8961m  
  396.00000m    843.1934m  
  397.00000m    840.4335m  
  398.00000m    837.6152m  
  399.00000m    834.7371m  
  400.00000m    831.7979m  
  401.00000m    828.7962m  
  402.00000m    825.7311m  
  403.00000m    822.6014m  
  404.00000m    819.4064m  
  405.00000m    816.1454m  
  406.00000m    812.8179m  
  407.00000m    809.4237m  
  408.00000m    805.9629m  
  409.00000m    802.4358m  
  410.00000m    798.8431m  
  411.00000m    795.1856m  
  412.00000m    791.4646m  
  413.00000m    787.6816m  
  414.00000m    783.8384m  
  415.00000m    779.9369m  
  416.00000m    775.9793m  
  417.00000m    771.9680m  
  418.00000m    767.9056m  
  419.00000m    763.7944m  
  420.00000m    759.6371m  
  421.00000m    755.4363m  
  422.00000m    751.1945m  
  423.00000m    746.9143m  
  424.00000m    742.5980m  
  425.00000m    738.2479m  
  426.00000m    733.8662m  
  427.00000m    729.4550m  
  428.00000m    725.0163m  
  429.00000m    720.5519m  
  430.00000m    716.0635m  
  431.00000m    711.5528m  
  432.00000m    707.0212m  
  433.00000m    702.4700m  
  434.00000m    697.9006m  
  435.00000m    693.3142m  
  436.00000m    688.7119m  
  437.00000m    684.0947m  
  438.00000m    679.4635m  
  439.00000m    674.8192m  
  440.00000m    670.1626m  
  441.00000m    665.4946m  
  442.00000m    660.8157m  
  443.00000m    656.1267m  
  444.00000m    651.4281m  
  445.00000m    646.7205m  
  446.00000m    642.0045m  
  447.00000m    637.2805m  
  448.00000m    632.5490m  
  449.00000m    627.8104m  
  450.00000m    623.0652m  
  451.00000m    618.3137m  
  452.00000m    613.5562m  
  453.00000m    608.7932m  
  454.00000m    604.0249m  
  455.00000m    599.2516m  
  456.00000m    594.4736m  
  457.00000m    589.6912m  
  458.00000m    584.9047m  
  459.00000m    580.1142m  
  460.00000m    575.3200m  
  461.00000m    570.5224m  
  462.00000m    565.7214m  
  463.00000m    560.9174m  
  464.00000m    556.1106m  
  465.00000m    551.3010m  
  466.00000m    546.4889m  
  467.00000m    541.6744m  
  468.00000m    536.8578m  
  469.00000m    532.0391m  
  470.00000m    527.2186m  
  471.00000m    522.3962m  
  472.00000m    517.5723m  
  473.00000m    512.7470m  
  474.00000m    507.9203m  
  475.00000m    503.0924m  
  476.00000m    498.2635m  
  477.00000m    493.4336m  
  478.00000m    488.6029m  
  479.00000m    483.7715m  
  480.00000m    478.9395m  
  481.00000m    474.1070m  
  482.00000m    469.2742m  
  483.00000m    464.4412m  
  484.00000m    459.6080m  
  485.00000m    454.7749m  
  486.00000m    449.9419m  
  487.00000m    445.1090m  
  488.00000m    440.2766m  
  489.00000m    435.4446m  
  490.00000m    430.6131m  
  491.00000m    425.7824m  
  492.00000m    420.9525m  
  493.00000m    416.1235m  
  494.00000m    411.2956m  
  495.00000m    406.4689m  
  496.00000m    401.6435m  
  497.00000m    396.8195m  
  498.00000m    391.9971m  
  499.00000m    387.1765m  
  500.00000m    382.3578m  
  501.00000m    377.5411m  
  502.00000m    372.7265m  
  503.00000m    367.9144m  
  504.00000m    363.1048m  
  505.00000m    358.2979m  
  506.00000m    353.4939m  
  507.00000m    348.6930m  
  508.00000m    343.8954m  
  509.00000m    339.1014m  
  510.00000m    334.3111m  
  511.00000m    329.5248m  
  512.00000m    324.7429m  
  513.00000m    319.9654m  
  514.00000m    315.1929m  
  515.00000m    310.4255m  
  516.00000m    305.6636m  
  517.00000m    300.9075m  
  518.00000m    296.1578m  
  519.00000m    291.4147m  
  520.00000m    286.6786m  
  521.00000m    281.9502m  
  522.00000m    277.2299m  
  523.00000m    272.5182m  
  524.00000m    267.8158m  
  525.00000m    263.1233m  
  526.00000m    258.4414m  
  527.00000m    253.7708m  
  528.00000m    249.1124m  
  529.00000m    244.4672m  
  530.00000m    239.8359m  
  531.00000m    235.2198m  
  532.00000m    230.6200m  
  533.00000m    226.0378m  
  534.00000m    221.4744m  
  535.00000m    216.9315m  
  536.00000m    212.4108m  
  537.00000m    207.9139m  
  538.00000m    203.4428m  
  539.00000m    198.9998m  
  540.00000m    194.5872m  
  541.00000m    190.2074m  
  542.00000m    185.8634m  
  543.00000m    181.5582m  
  544.00000m    177.2949m  
  545.00000m    173.0771m  
  546.00000m    168.9086m  
  547.00000m    164.7934m  
  548.00000m    160.7358m  
  549.00000m    156.7401m  
  550.00000m    152.8109m  
  551.00000m    148.9530m  
  552.00000m    145.1710m  
  553.00000m    141.4697m  
  554.00000m    137.8534m  
  555.00000m    134.3265m  
  556.00000m    130.8927m  
  557.00000m    127.5554m  
  558.00000m    124.3173m  
  559.00000m    121.1804m  
  560.00000m    118.1460m  
  561.00000m    115.2147m  
  562.00000m    112.3863m  
  563.00000m    109.6596m  
  564.00000m    107.0332m  
  565.00000m    104.5047m  
  566.00000m    102.0715m  
  567.00000m     99.7305m  
  568.00000m     97.4781m  
  569.00000m     95.3109m  
  570.00000m     93.2250m  
  571.00000m     91.2167m  
  572.00000m     89.2823m  
  573.00000m     87.4179m  
  574.00000m     85.6202m  
  575.00000m     83.8855m  
  576.00000m     82.2105m  
  577.00000m     80.5922m  
  578.00000m     79.0275m  
  579.00000m     77.5136m  
  580.00000m     76.0478m  
  581.00000m     74.6277m  
  582.00000m     73.2508m  
  583.00000m     71.9150m  
  584.00000m     70.6183m  
  585.00000m     69.3587m  
  586.00000m     68.1344m  
  587.00000m     66.9438m  
  588.00000m     65.7852m  
  589.00000m     64.6572m  
  590.00000m     63.5584m  
  591.00000m     62.4876m  
  592.00000m     61.4434m  
  593.00000m     60.4247m  
  594.00000m     59.4306m  
  595.00000m     58.4599m  
  596.00000m     57.5118m  
  597.00000m     56.5853m  
  598.00000m     55.6796m  
  599.00000m     54.7939m  
  600.00000m     53.9275m  
  601.00000m     53.0796m  
  602.00000m     52.2496m  
  603.00000m     51.4368m  
  604.00000m     50.6407m  
  605.00000m     49.8606m  
  606.00000m     49.0961m  
  607.00000m     48.3467m  
  608.00000m     47.6117m  
  609.00000m     46.8909m  
  610.00000m     46.1836m  
  611.00000m     45.4896m  
  612.00000m     44.8084m  
  613.00000m     44.1396m  
  614.00000m     43.4828m  
  615.00000m     42.8378m  
  616.00000m     42.2042m  
  617.00000m     41.5816m  
  618.00000m     40.9698m  
  619.00000m     40.3684m  
  620.00000m     39.7772m  
  621.00000m     39.1959m  
  622.00000m     38.6243m  
  623.00000m     38.0621m  
  624.00000m     37.5090m  
  625.00000m     36.9649m  
  626.00000m     36.4295m  
  627.00000m     35.9026m  
  628.00000m     35.3840m  
  629.00000m     34.8736m  
  630.00000m     34.3710m  
  631.00000m     33.8762m  
  632.00000m     33.3890m  
  633.00000m     32.9091m  
  634.00000m     32.4365m  
  635.00000m     31.9709m  
  636.00000m     31.5123m  
  637.00000m     31.0605m  
  638.00000m     30.6153m  
  639.00000m     30.1766m  
  640.00000m     29.7442m  
  641.00000m     29.3181m  
  642.00000m     28.8981m  
  643.00000m     28.4841m  
  644.00000m     28.0760m  
  645.00000m     27.6736m  
  646.00000m     27.2769m  
  647.00000m     26.8858m  
  648.00000m     26.5001m  
  649.00000m     26.1197m  
  650.00000m     25.7446m  
  651.00000m     25.3746m  
  652.00000m     25.0097m  
  653.00000m     24.6498m  
  654.00000m     24.2948m  
  655.00000m     23.9446m  
  656.00000m     23.5991m  
  657.00000m     23.2583m  
  658.00000m     22.9220m  
  659.00000m     22.5903m  
  660.00000m     22.2629m  
  661.00000m     21.9400m  
  662.00000m     21.6213m  
  663.00000m     21.3068m  
  664.00000m     20.9965m  
  665.00000m     20.6902m  
  666.00000m     20.3880m  
  667.00000m     20.0898m  
  668.00000m     19.7955m  
  669.00000m     19.5050m  
  670.00000m     19.2184m  
  671.00000m     18.9354m  
  672.00000m     18.6562m  
  673.00000m     18.3806m  
  674.00000m     18.1086m  
  675.00000m     17.8401m  
  676.00000m     17.5751m  
  677.00000m     17.3136m  
  678.00000m     17.0554m  
  679.00000m     16.8006m  
  680.00000m     16.5491m  
  681.00000m     16.3009m  
  682.00000m     16.0559m  
  683.00000m     15.8140m  
  684.00000m     15.5753m  
  685.00000m     15.3397m  
  686.00000m     15.1072m  
  687.00000m     14.8776m  
  688.00000m     14.6511m  
  689.00000m     14.4275m  
  690.00000m     14.2068m  
  691.00000m     13.9890m  
  692.00000m     13.7740m  
  693.00000m     13.5618m  
  694.00000m     13.3524m  
  695.00000m     13.1458m  
  696.00000m     12.9418m  
  697.00000m     12.7406m  
  698.00000m     12.5419m  
  699.00000m     12.3459m  
  700.00000m     12.1525m  
  701.00000m     11.9616m  
  702.00000m     11.7733m  
  703.00000m     11.5874m  
  704.00000m     11.4040m  
  705.00000m     11.2231m  
  706.00000m     11.0445m  
  707.00000m     10.8684m  
  708.00000m     10.6946m  
  709.00000m     10.5232m  
  710.00000m     10.3540m  
  711.00000m     10.1871m  
  712.00000m     10.0225m  
  713.00000m      9.8602m  
  714.00000m      9.7000m  
  715.00000m      9.5420m  
  716.00000m      9.3862m  
  717.00000m      9.2325m  
  718.00000m      9.0809m  
  719.00000m      8.9314m  
  720.00000m      8.7840m  
  721.00000m      8.6386m  
  722.00000m      8.4953m  
  723.00000m      8.3539m  
  724.00000m      8.2145m  
  725.00000m      8.0771m  
  726.00000m      7.9416m  
  727.00000m      7.8081m  
  728.00000m      7.6764m  
  729.00000m      7.5466m  
  730.00000m      7.4186m  
  731.00000m      7.2925m  
  732.00000m      7.1682m  
  733.00000m      7.0457m  
  734.00000m      6.9250m  
  735.00000m      6.8060m  
  736.00000m      6.6887m  
  737.00000m      6.5732m  
  738.00000m      6.4593m  
  739.00000m      6.3472m  
  740.00000m      6.2367m  
  741.00000m      6.1278m  
  742.00000m      6.0205m  
  743.00000m      5.9149m  
  744.00000m      5.8108m  
  745.00000m      5.7083m  
  746.00000m      5.6074m  
  747.00000m      5.5079m  
  748.00000m      5.4100m  
  749.00000m      5.3136m  
  750.00000m      5.2187m  
  751.00000m      5.1252m  
  752.00000m      5.0332m  
  753.00000m      4.9426m  
  754.00000m      4.8534m  
  755.00000m      4.7655m  
  756.00000m      4.6791m  
  757.00000m      4.5941m  
  758.00000m      4.5103m  
  759.00000m      4.4279m  
  760.00000m      4.3468m  
  761.00000m      4.2670m  
  762.00000m      4.1885m  
  763.00000m      4.1113m  
  764.00000m      4.0353m  
  765.00000m      3.9605m  
  766.00000m      3.8869m  
  767.00000m      3.8146m  
  768.00000m      3.7434m  
  769.00000m      3.6734m  
  770.00000m      3.6046m  
  771.00000m      3.5368m  
  772.00000m      3.4703m  
  773.00000m      3.4048m  
  774.00000m      3.3404m  
  775.00000m      3.2771m  
  776.00000m      3.2149m  
  777.00000m      3.1537m  
  778.00000m      3.0936m  
  779.00000m      3.0345m  
  780.00000m      2.9763m  
  781.00000m      2.9192m  
  782.00000m      2.8631m  
  783.00000m      2.8080m  
  784.00000m      2.7538m  
  785.00000m      2.7005m  
  786.00000m      2.6482m  
  787.00000m      2.5967m  
  788.00000m      2.5462m  
  789.00000m      2.4966m  
  790.00000m      2.4478m  
  791.00000m      2.4000m  
  792.00000m      2.3529m  
  793.00000m      2.3067m  
  794.00000m      2.2613m  
  795.00000m      2.2168m  
  796.00000m      2.1730m  
  797.00000m      2.1301m  
  798.00000m      2.0879m  
  799.00000m      2.0464m  
  800.00000m      2.0058m  
  801.00000m      1.9658m  
  802.00000m      1.9266m  
  803.00000m      1.8881m  
  804.00000m      1.8504m  
  805.00000m      1.8133m  
  806.00000m      1.7769m  
  807.00000m      1.7412m  
  808.00000m      1.7061m  
  809.00000m      1.6717m  
  810.00000m      1.6380m  
  811.00000m      1.6049m  
  812.00000m      1.5724m  
  813.00000m      1.5405m  
  814.00000m      1.5092m  
  815.00000m      1.4785m  
  816.00000m      1.4484m  
  817.00000m      1.4189m  
  818.00000m      1.3899m  
  819.00000m      1.3615m  
  820.00000m      1.3336m  
  821.00000m      1.3062m  
  822.00000m      1.2794m  
  823.00000m      1.2531m  
  824.00000m      1.2273m  
  825.00000m      1.2020m  
  826.00000m      1.1772m  
  827.00000m      1.1529m  
  828.00000m      1.1291m  
  829.00000m      1.1057m  
  830.00000m      1.0828m  
  831.00000m      1.0603m  
  832.00000m      1.0383m  
  833.00000m      1.0167m  
  834.00000m    995.4815u  
  835.00000m    974.7251u  
  836.00000m    954.3790u  
  837.00000m    934.4360u  
  838.00000m    914.8888u  
  839.00000m    895.7301u  
  840.00000m    876.9528u  
  841.00000m    858.5501u  
  842.00000m    840.5150u  
  843.00000m    822.8408u  
  844.00000m    805.5208u  
  845.00000m    788.5485u  
  846.00000m    771.9173u  
  847.00000m    755.6211u  
  848.00000m    739.6534u  
  849.00000m    724.0082u  
  850.00000m    708.6795u  
  851.00000m    693.6611u  
  852.00000m    678.9474u  
  853.00000m    664.5325u  
  854.00000m    650.4108u  
  855.00000m    636.5767u  
  856.00000m    623.0247u  
  857.00000m    609.7494u  
  858.00000m    596.7456u  
  859.00000m    584.0080u  
  860.00000m    571.5315u  
  861.00000m    559.3110u  
  862.00000m    547.3417u  
  863.00000m    535.6186u  
  864.00000m    524.1371u  
  865.00000m    512.8923u  
  866.00000m    501.8796u  
  867.00000m    491.0947u  
  868.00000m    480.5329u  
  869.00000m    470.1899u  
  870.00000m    460.0615u  
  871.00000m    450.1434u  
  872.00000m    440.4315u  
  873.00000m    430.9216u  
  874.00000m    421.6099u  
  875.00000m    412.4924u  
  876.00000m    403.5651u  
  877.00000m    394.8245u  
  878.00000m    386.2667u  
  879.00000m    377.8881u  
  880.00000m    369.6851u  
  881.00000m    361.6543u  
  882.00000m    353.7921u  
  883.00000m    346.0952u  
  884.00000m    338.5603u  
  885.00000m    331.1842u  
  886.00000m    323.9635u  
  887.00000m    316.8953u  
  888.00000m    309.9764u  
  889.00000m    303.2038u  
  890.00000m    296.5746u  
  891.00000m    290.0858u  
  892.00000m    283.7346u  
  893.00000m    277.5182u  
  894.00000m    271.4339u  
  895.00000m    265.4790u  
  896.00000m    259.6508u  
  897.00000m    253.9468u  
  898.00000m    248.3645u  
  899.00000m    242.9013u  
  900.00000m    237.5548u  
  901.00000m    232.3226u  
  902.00000m    227.2024u  
  903.00000m    222.1919u  
  904.00000m    217.2888u  
  905.00000m    212.4909u  
  906.00000m    207.7961u  
  907.00000m    203.2023u  
  908.00000m    198.7073u  
  909.00000m    194.3091u  
  910.00000m    190.0057u  
  911.00000m    185.7951u  
  912.00000m    181.6755u  
  913.00000m    177.6450u  
  914.00000m    173.7016u  
  915.00000m    169.8437u  
  916.00000m    166.0693u  
  917.00000m    162.3769u  
  918.00000m    158.7646u  
  919.00000m    155.2308u  
  920.00000m    151.7739u  
  921.00000m    148.3923u  
  922.00000m    145.0844u  
  923.00000m    141.8486u  
  924.00000m    138.6834u  
  925.00000m    135.5875u  
  926.00000m    132.5592u  
  927.00000m    129.5972u  
  928.00000m    126.7002u  
  929.00000m    123.8667u  
  930.00000m    121.0954u  
  931.00000m    118.3850u  
  932.00000m    115.7342u  
  933.00000m    113.1417u  
  934.00000m    110.6064u  
  935.00000m    108.1270u  
  936.00000m    105.7023u  
  937.00000m    103.3313u  
  938.00000m    101.0126u  
  939.00000m     98.7453u  
  940.00000m     96.5282u  
  941.00000m     94.3604u  
  942.00000m     92.2406u  
  943.00000m     90.1679u  
  944.00000m     88.1414u  
  945.00000m     86.1600u  
  946.00000m     84.2227u  
  947.00000m     82.3287u  
  948.00000m     80.4769u  
  949.00000m     78.6666u  
  950.00000m     76.8967u  
  951.00000m     75.1665u  
  952.00000m     73.4751u  
  953.00000m     71.8216u  
  954.00000m     70.2053u  
  955.00000m     68.6253u  
  956.00000m     67.0809u  
  957.00000m     65.5713u  
  958.00000m     64.0957u  
  959.00000m     62.6534u  
  960.00000m     61.2438u  
  961.00000m     59.8660u  
  962.00000m     58.5194u  
  963.00000m     57.2033u  
  964.00000m     55.9171u  
  965.00000m     54.6601u  
  966.00000m     53.4317u  
  967.00000m     52.2312u  
  968.00000m     51.0581u  
  969.00000m     49.9117u  
  970.00000m     48.7916u  
  971.00000m     47.6970u  
  972.00000m     46.6274u  
  973.00000m     45.5824u  
  974.00000m     44.5613u  
  975.00000m     43.5637u  
  976.00000m     42.5890u  
  977.00000m     41.6367u  
  978.00000m     40.7063u  
  979.00000m     39.7974u  
  980.00000m     38.9094u  
  981.00000m     38.0420u  
  982.00000m     37.1946u  
  983.00000m     36.3669u  
  984.00000m     35.5583u  
  985.00000m     34.7685u  
  986.00000m     33.9971u  
  987.00000m     33.2436u  
  988.00000m     32.5076u  
  989.00000m     31.7889u  
  990.00000m     31.0868u  
  991.00000m     30.4012u  
  992.00000m     29.7317u  
  993.00000m     29.0778u  
  994.00000m     28.4392u  
  995.00000m     27.8157u  
  996.00000m     27.2068u  
  997.00000m     26.6122u  
  998.00000m     26.0317u  
  999.00000m     25.4649u  
    1.00000      24.9114u  
y
1****** HSPICE -- D-2010.03-SP1 32-BIT (May 26 2010) winnt ******               
 ******  
 first line of the netlist must be blank.

  ******  operating point information tnom=  25.000 temp=  27.000 *****
 ***** operating point status is all       simulation time is     0.     
    node    =voltage      node    =voltage      node    =voltage

 +0:in      =   1.0000  0:out     =  24.9114u 0:vdd     =   1.0000 


 ****  voltage sources

 subckt                        
 element  0:v1       0:vin     
  volts      1.0000     1.0000 
  current   -8.7540n   -1.2966n
  power      8.7540n    1.2966n

     total voltage source power dissipation=   10.0506n       watts




 **** mosfets


 subckt                        
 element  0:m1       0:m2      
 model    0:pmos     0:nmos    
 region       Cutoff     Linear
  id        -8.7530n    9.4052n
  ibs     -9.491e-25  2.443e-25
  ibd        1.0100p  -34.5384a
  vgs        0.         1.0000 
  vds     -999.9751m   24.9114u
  vbs        0.         0.     
  vth     -223.0810m  467.0404m
  vdsat    -45.6364m  276.2690m
  vod      223.0810m  532.9596m
  beta     562.3887u    2.3591m
  gam eff  488.0000m  528.0000m
  gm       205.8804n    4.4600n
  gds       45.3039n  377.5310u
  gmb       55.8526n    2.3973n
  cdtot    115.1047a  126.6726a
  cgtot    130.7569a  113.9911a
  cstot    211.8443a  114.2258a
  cbtot    235.0082a  127.4569a
  cgs       67.8535a   63.1341a
  cgd       43.5037a   50.7826a




          ***** job concluded
1****** HSPICE -- D-2010.03-SP1 32-BIT (May 26 2010) winnt ******               
 ******  
 first line of the netlist must be blank.

  ******  job statistics summary tnom=  25.000 temp=  27.000 *****

  ******  HSPICE Threads Information  ******

  Command Line Threads Count                  :     1
  Available CPU Count                         :     4
  Actual Model Evaluation(Load) Threads Count :     1
  Actual Solver Threads Count                 :     1


  ******  Circuit Statistics  ******
  # nodes       =      12 # elements   =       4
  # resistors   =       0 # capacitors =       0 # inductors   =       0
  # mutual_inds =       0 # vccs       =       0 # vcvs        =       0
  # cccs        =       0 # ccvs       =       0 # volt_srcs   =       2
  # curr_srcs   =       0 # diodes     =       0 # bjts        =       0
  # jfets       =       0 # mosfets    =       2 # U elements  =       0
  # T elements  =       0 # W elements =       0 # B elements  =       0
  # S elements  =       0 # P elements =       0 # va device   =       0


  ******  Runtime Statistics (seconds)  ******

  analysis           time    # points   tot. iter  conv.iter
  op point           0.01           1           8
  dc sweep           0.04         991        1988
  readin             0.06
  errchk             0.01
  setup              0.02
  output             0.00


           total memory used          182  kbytes
           total cpu time            0.16 seconds
           total elapsed time        0.20 seconds
           job started at     13:45:50 10/31/2014
           job ended   at     13:45:50 10/31/2014


  lic: Release hspice token(s) 
