 ****** HSPICE -- D-2010.03-SP1 32-BIT (May 26 2010) winnt ******               
  Copyright (C) 2010 Synopsys, Inc. All Rights Reserved.                        
  Unpublished-rights reserved under US copyright laws.
  This program is protected by law and is subject to the 
  terms and conditions of the license agreement from Synopsys.
  Use of this program is your acceptance to be bound by the 
  license agreement. HSPICE is the trademark of Synopsys, Inc.
  Input File: d:\digital electronic\projects\ca_3\transmission_gate_xor\transmis
  lic:  
  lic: FLEXlm: v8.5b 
  lic: USER:   HP                   HOSTNAME: ProBook 
  lic: HOSTID: "00090faa0001 56db30007c95 16db30007c95 a4db30007c95 a45d36cb5ab9
  
  lic: Using FLEXlm license file: 
  lic: 27000@elena 
  lic: Checkout 1 hspice 
  lic: License/Maintenance for hspice will expire on 31-dec-2020/2007.9 
  lic: NODE LOCKED license on hostid "00090faa0001 56db30007c95 16db30007c95 a4d
 b
  lic:   
 Init: read install configuration file: C:\synopsys\Hspice_D-2010.03-SP1\meta.cfg
1****** HSPICE -- D-2010.03-SP1 32-BIT (May 26 2010) winnt ******               
 ******  
 first line of the netlist must be blank.

  ******  circuit name directory
 circuit number to circuit name directory
   number circuitname                     definition         multiplier
        0 main circuit
        1 x_b.                            inverter           1.00 
1****** HSPICE -- D-2010.03-SP1 32-BIT (May 26 2010) winnt ******               
 ******  
 first line of the netlist must be blank.

  ******  mos   model parameters tnom=  25.000 temp=  25.000 *****
 
Model Name: nmos  

 BSIM4 Model (Level 54)

    MOBMOD = 0
    BINUNIT = 1
    PARAMCHK = 1
    CAPMOD = 2
    DIOMOD = 1
    RDSMOD = 0
    TRNQSMOD = 0
    ACNQSMOD = 0
    RBODYMOD = 1
    RGATEMOD = 1
    PERMOD = 1
    GEOMOD = 1
    RGEOMOD = 0
    FNOIMOD = 1
    TNOIMOD = 0
    IGCMOD = 1
    IGBMOD = 1
    STIMOD = 0
    VERSION =      4 
    TOXREF = 1.65e-009 
    TOXE = 1.65e-009 
    TOXP = 1e-009 
    TOXM = 1.65e-009 
    DTOX = 6.5e-010 
    EPSROX =    3.9 
    CDSC =      0 
    CDSCB =      0 
    CDSCD =      0 
    CIT =      0 
    NFACTOR =    2.3 
    XJ = 1e-008 
    VSAT = 1.785e+005 
    A0 =      1 
    AGS =      0 
    A1 =      0 
    A2 =      1 
    AT = 3.3e+004 
    KETA =   0.04 
    NSUB = 6e+016 
    NDEP = 4.12e+018 
    NSD = 2e+020 
    NGATE = 2e+020 
    GAMMA1 =      0 
    GAMMA2 =      0 
    VBX =      0 
    VBM =     -3 
    XT = 1.55e-007 
    K1 =    0.4 
    KT1 =  -0.11 
    KT1L =      0 
    KT2 =  0.022 
    K2 =      0 
    K3 =      0 
    K3B =      0 
    LPE0 =      0 
    LPEB =      0 
    DVTP0 = 1e-011 
    DVTP1 =    0.1 
    W0 = 2.5e-006 
    DVT0 =      1 
    DVT1 =      2 
    DVT2 =      0 
    DVT0W =      0 
    DVT1W =      0 
    DVT2W =      0 
    DROUT =    0.5 
    DSUB =    0.1 
    VTH0 = 0.5088 
    EU =   1.67 
    UA = 6e-010 
    UA1 = 4.31e-009 
    UB = 1.2e-018 
    UB1 = 7.61e-018 
    UC =      0 
    UC1 = -5.6e-011 
    U0 = 0.0389 
    UTE =   -1.5 
    VOFF =  -0.13 
    VOFFL =      0 
    MINV =   0.05 
    FPROUT =    0.2 
    PDITS =   0.01 
    PDITSD =   0.23 
    PDITSL = 2.3e+006 
    DELTA =   0.01 
    RDSW =    150 
    RDSWMIN =      0 
    RDWMIN =      0 
    RSWMIN =      0 
    RDW =     75 
    RSW =     75 
    PRWG =      0 
    PRWB =      0 
    PRT =      0 
    ETA0 = 0.0042 
    ETAB =      0 
    PCLM =   0.02 
    PDIBLC1 =  0.001 
    PDIBLC2 =  0.001 
    PDIBLCB = -0.005 
    PSCBE1 = 8.14e+008 
    PSCBE2 = 1e-007 
    PVAG = 1e-020 
    WR =      1 
    DWG =      0 
    DWB =      0 
    XW =      0 
    XWREF =      0 
    XL = -1.4e-008 
    XLREF = -1.4e-008 
    B0 =      0 
    B1 =      0 
    ALPHA0 =  0.074 
    ALPHA1 =  0.005 
    AGIDL = 0.0002 
    BGIDL = 2.1e+009 
    CGIDL = 0.0002 
    PHIN =      0 
    EGIDL =    0.8 
    AIGC =  0.012 
    BIGC = 0.0028 
    CIGC =  0.002 
    AIGSD =  0.012 
    BIGSD = 0.0028 
    CIGSD =  0.002 
    AIGBACC =  0.012 
    BIGBACC = 0.0028 
    CIGBACC =  0.002 
    AIGBINV =  0.014 
    BIGBINV =  0.004 
    CIGBINV =  0.004 
    NIGC =      1 
    NIGBINV =      3 
    NIGBACC =      1 
    NTOX =      1 
    EIGBINV =    1.1 
    PIGCD =      1 
    POXEDGE =      1 
    XRCRG1 =     12 
    TNOIA =    1.5 
    TNOIB =    3.5 
    NTNOI =      1 
    XRCRG2 =      5 
    BETA0 =     30 
    IJTHDFWD =   0.01 
    IJTHSFWD =   0.01 
    IJTHDREV =  0.001 
    IJTHSREV =  0.001 
    XJBVD =      1 
    XJBVS =      1 
    BVD =     10 
    BVS =     10 
    VFB =  -0.55 
    GBMIN = 1e-010 
    RBDB =     15 
    RBPB =      5 
    RBSB =     15 
    RBPS =     15 
    RBPD =     15 
    CGSL = 2.653e-010 
    CGDL = 2.653e-010 
    CKAPPAS =   0.03 
    CKAPPAD =   0.03 
    CF = 1.208e-010 
    CLC = 1e-007 
    CLE =    0.6 
    DWC = 5e-009 
    DLC = 2.7e-009 
    DLCIG = 2.7e-009 
    DWJ =      0 
    VFBCV =     -1 
    ACDE =      1 
    MOIN =     15 
    NOFF =    0.9 
    VOFFCV =   0.02 
    DMCG =      0 
    DMCI =      0 
    DMDG =      0 
    DMCGT =      0 
    XGW =      0 
    XGL =      0 
    RSHG =    0.4 
    NGCON =      1 
    TCJ =  0.001 
    TPB =  0.005 
    TCJSW =  0.001 
    TPBSW =  0.005 
    TCJSWG =  0.001 
    TPBSWG =  0.005 
    SK0 =      0 
    SK1 =      0 
    SK2 =      0 
    SL = 2e-006 
    SW = 2e-006 
    K =      0 
    TNOM =  300.1 
    CGSO = 8.5e-011 
    CGDO = 8.5e-011 
    CGBO = 2.56e-011 
    XPART =      0 
    RSH =      5 
    JSS = 0.0001 
    JSWS = 1e-011 
    JSWGS = 1e-010 
    PBS =      1 
    MJS =    0.5 
    PBSWS =      1 
    MJSWS =   0.33 
    CJS = 0.0005 
    CJSWS = 5e-010 
    NJS =      1 
    PBSWGS =      1 
    MJSWGS =   0.33 
    CJSWGS = 3e-010 
    XTIS =      3 
    JSD = 0.0001 
    JSWD = 1e-011 
    JSWGD = 1e-010 
    PBD =      1 
    MJD =    0.5 
    PBSWD =      1 
    MJSWD =   0.33 
    CJD = 0.0005 
    CJSWD = 5e-010 
    NJD =      1 
    PBSWGD =      1 
    MJSWGD =   0.33 
    CJSWGD = 5e-010 
    XTID =      3 
    LMLT =      1 
    WMLT =      1 
    LINT = 2.7e-009 
    LL =      0 
    LLC =      0 
    LLN =      1 
    LW =      0 
    LWC =      0 
    LWN =      1 
    LWL =      0 
    LWLC =      0 
    LMIN =      0 
    LMAX =      1 
    WINT = 5e-009 
    WL =      0 
    WLC =      0 
    WLN =      1 
    WW =      0 
    WWC =      0 
    WWN =      1 
    WWL =      0 
    WWLC =      0 
    WMIN =      0 
    WMAX =      1 
    NOIA = 6.25e+041 
    NOIB = 3.125e+026 
    NOIC = 8.75e+009 
    EM = 4.1e+007 
    EF =      1 
    AF =      1 
    KF =      0 
    TRS =      0 
    TRD =      0 
 

 
Model Name: pmos  

 BSIM4 Model (Level 54)

    MOBMOD = 0
    BINUNIT = 1
    PARAMCHK = 1
    CAPMOD = 2
    DIOMOD = 1
    RDSMOD = 0
    TRNQSMOD = 0
    ACNQSMOD = 0
    RBODYMOD = 1
    RGATEMOD = 1
    PERMOD = 1
    GEOMOD = 1
    RGEOMOD = 0
    FNOIMOD = 1
    TNOIMOD = 0
    IGCMOD = 1
    IGBMOD = 1
    STIMOD = 0
    VERSION =      4 
    TOXREF = 1.75e-009 
    TOXE = 1.75e-009 
    TOXP = 1e-009 
    TOXM = 1.75e-009 
    DTOX = 7.5e-010 
    EPSROX =    3.9 
    CDSC =      0 
    CDSCB =      0 
    CDSCD =      0 
    CIT =      0 
    NFACTOR =    2.3 
    XJ = 1e-008 
    VSAT = 7e+004 
    A0 =      1 
    AGS = 1e-020 
    A1 =      0 
    A2 =      1 
    AT = 3.3e+004 
    KETA = -0.047 
    NSUB = 6e+016 
    NDEP = 3.07e+018 
    NSD = 2e+020 
    NGATE = 2e+020 
    GAMMA1 =      0 
    GAMMA2 =      0 
    VBX =      0 
    VBM =     -3 
    XT = 1.55e-007 
    K1 =    0.4 
    KT1 =  -0.11 
    KT1L =      0 
    KT2 =  0.022 
    K2 =  -0.01 
    K3 =      0 
    K3B =      0 
    LPE0 =      0 
    LPEB =      0 
    DVTP0 = 1e-011 
    DVTP1 =   0.05 
    W0 = 2.5e-006 
    DVT0 =      1 
    DVT1 =      2 
    DVT2 = -0.032 
    DVT0W =      0 
    DVT1W =      0 
    DVT2W =      0 
    DROUT =    0.6 
    DSUB =    0.1 
    VTH0 =  -0.45 
    EU =      1 
    UA = 2e-009 
    UA1 = 4.31e-009 
    UB = 5e-019 
    UB1 = 7.61e-018 
    UC =      0 
    UC1 = -5.6e-011 
    U0 = 0.00355 
    UTE =   -1.5 
    VOFF = -0.126 
    VOFFL =      0 
    MINV =   0.05 
    FPROUT =    0.2 
    PDITS =   0.08 
    PDITSD =   0.23 
    PDITSL = 2.3e+006 
    DELTA =   0.01 
    RDSW =    150 
    RDSWMIN =      0 
    RDWMIN =      0 
    RSWMIN =      0 
    RDW =     75 
    RSW =     75 
    PRWG =      0 
    PRWB =      0 
    PRT =      0 
    ETA0 = 0.0042 
    ETAB =      0 
    PCLM =    0.1 
    PDIBLC1 =  0.001 
    PDIBLC2 =  0.001 
    PDIBLCB = 3.4e-008 
    PSCBE1 = 8.14e+008 
    PSCBE2 = 9.58e-007 
    PVAG = 1e-020 
    WR =      1 
    DWG =      0 
    DWB =      0 
    XW =      0 
    XWREF =      0 
    XL = -1.4e-008 
    XLREF = -1.4e-008 
    B0 =      0 
    B1 =      0 
    ALPHA0 =  0.074 
    ALPHA1 =  0.005 
    AGIDL = 0.0002 
    BGIDL = 2.1e+009 
    CGIDL = 0.0002 
    PHIN =      0 
    EGIDL =    0.8 
    AIGC =   0.69 
    BIGC = 0.0012 
    CIGC = 0.0008 
    AIGSD = 0.0087 
    BIGSD = 0.0012 
    CIGSD = 0.0008 
    AIGBACC =  0.012 
    BIGBACC = 0.0028 
    CIGBACC =  0.002 
    AIGBINV =  0.014 
    BIGBINV =  0.004 
    CIGBINV =  0.004 
    NIGC =      1 
    NIGBINV =      3 
    NIGBACC =      1 
    NTOX =      1 
    EIGBINV =    1.1 
    PIGCD =      1 
    POXEDGE =      1 
    XRCRG1 =     12 
    TNOIA =    1.5 
    TNOIB =    3.5 
    NTNOI =      1 
    XRCRG2 =      5 
    BETA0 =     30 
    IJTHDFWD =   0.01 
    IJTHSFWD =   0.01 
    IJTHDREV =  0.001 
    IJTHSREV =  0.001 
    XJBVD =      1 
    XJBVS =      1 
    BVD =     10 
    BVS =     10 
    VFB =   0.55 
    GBMIN = 1e-010 
    RBDB =     15 
    RBPB =      5 
    RBSB =     15 
    RBPS =     15 
    RBPD =     15 
    CGSL = 2.653e-010 
    CGDL = 2.653e-010 
    CKAPPAS =   0.03 
    CKAPPAD =   0.03 
    CF = 1.195e-010 
    CLC = 1e-007 
    CLE =    0.6 
    DWC = 5e-009 
    DLC = 2.7e-009 
    DLCIG = 2.7e-009 
    DWJ =      0 
    VFBCV =     -1 
    ACDE =      1 
    MOIN =     15 
    NOFF =    0.9 
    VOFFCV =   0.02 
    DMCG =      0 
    DMCI =      0 
    DMDG =      0 
    DMCGT =      0 
    XGW =      0 
    XGL =      0 
    RSHG =    0.4 
    NGCON =      1 
    TCJ =  0.001 
    TPB =  0.005 
    TCJSW =  0.001 
    TPBSW =  0.005 
    TCJSWG =  0.001 
    TPBSWG =  0.005 
    SK0 =      0 
    SK1 =      0 
    SK2 =      0 
    SL = 2e-006 
    SW = 2e-006 
    K =      0 
    TNOM =  300.1 
    CGSO = 8.5e-011 
    CGDO = 8.5e-011 
    CGBO = 2.56e-011 
    XPART =      0 
    RSH =      5 
    JSS = 0.0001 
    JSWS = 1e-011 
    JSWGS = 1e-010 
    PBS =      1 
    MJS =    0.5 
    PBSWS =      1 
    MJSWS =   0.33 
    CJS = 0.0005 
    CJSWS = 5e-010 
    NJS =      1 
    PBSWGS =      1 
    MJSWGS =   0.33 
    CJSWGS = 3e-010 
    XTIS =      3 
    JSD = 0.0001 
    JSWD = 1e-011 
    JSWGD = 1e-010 
    PBD =      1 
    MJD =    0.5 
    PBSWD =      1 
    MJSWD =   0.33 
    CJD = 0.0005 
    CJSWD = 5e-010 
    NJD =      1 
    PBSWGD =      1 
    MJSWGD =   0.33 
    CJSWGD = 5e-010 
    XTID =      3 
    LMLT =      1 
    WMLT =      1 
    LINT = 2.7e-009 
    LL =      0 
    LLC =      0 
    LLN =      1 
    LW =      0 
    LWC =      0 
    LWN =      1 
    LWL =      0 
    LWLC =      0 
    LMIN =      0 
    LMAX =      1 
    WINT = 5e-009 
    WL =      0 
    WLC =      0 
    WLN =      1 
    WW =      0 
    WWC =      0 
    WWN =      1 
    WWL =      0 
    WWLC =      0 
    WMIN =      0 
    WMAX =      1 
    NOIA = 6.188e+040 
    NOIB = 1.5e+025 
    NOIC = 8.75e+009 
    EM = 4.1e+007 
    EF =      1 
    AF =      1 
    KF =      0 
    TRS =      0 
    TRD =      0 
 

  **info** (d:\digital electronic\projects\ca_3\transmission_gate_xor\transmission_gate_xor.sp:54) DC voltage reset to initial transient source value              in source        0:vina                new dc=  0.0000D+00
 Warning:  Acde = 1 may be too small in BSIM4 model nmos with w=2.2e-007 l=3.2e-008.

 Warning:  Acde = 1 may be too small in BSIM4 model pmos with w=4.4e-007 l=3.2e-008.

 
      
 **info** set option symb=1 internally to help for convergence.
 *****************************************************************
 ******  option summary
 ******
 runlvl  = 3         bypass  = 2         
  Opening plot unit= 79
 file=d:\digital electronic\projects\ca_3\transmission_gate_xor\transmission_ga

1****** HSPICE -- D-2010.03-SP1 32-BIT (May 26 2010) winnt ******               
 ******  
 first line of the netlist must be blank.

  ******  operating point information tnom=  25.000 temp=  25.000 *****
 ***** operating point status is all       simulation time is     0.     
    node    =voltage      node    =voltage      node    =voltage

 +0:a       =   0.      0:b       =   0.      0:b_bar   = 999.7127m
 +0:out     =  74.4031u 0:vdd     =   1.0000 


 ****  voltage sources

 subckt                                   
 element  0:v1       0:vina     0:vinb    
  volts      1.0000     0.         0.     
  current -155.7418n   79.7893n    1.2858n
  power    155.7418n    0.         0.     

     total voltage source power dissipation=  155.7418n       watts




 **** mosfets


 subckt                                               x_b        x_b       
 element  0:m_p_1    0:m_n_1    0:m_p_2    0:m_n_2    1:mn       1:mp      
 model    0:pmos     0:nmos     0:pmos     0:nmos     0:nmos     0:pmos    
 region       Cutoff     Cutoff     Cutoff     Linear     Cutoff     Linear
  id         2.0674f  -74.4824n    2.0674f   76.5226n   74.6646n -155.7088n
  ibs        1.0000p -999.7301f    1.0000p  8.038e-26  9.693e-25 -2.878e-25
  ibd        1.0099p -103.3210a    1.0099p -103.3210a   -1.0097p  398.4450a
  vgs        0.      -999.7127m    0.       999.7127m    0.        -1.0000 
  vds       74.4031u -999.6383m   74.4031u   74.4031u  999.7127m -287.2585u
  vbs        1.0000  -999.7127m    1.0000     0.         0.         0.     
  vth     -576.3952m  274.8226m -576.3952m  494.8822m  274.7915m -430.7522m
  vdsat    -49.8036m   38.2785m  -49.8036m  287.5176m   38.2786m -427.4490m
  vod      576.3952m   -1.2745   576.3952m  504.8306m -274.7915m -569.2478m
  beta       1.0376m   14.3307m    1.0376m    8.1344m   14.3313m    1.2004m
  gam eff  400.0000m  400.0000m  400.0000m  400.0000m  400.0000m  400.0000m
  gm        56.3322f    1.6514u   56.3322f   33.1598n    1.6554u  178.1810n
  gds       27.7785p  397.6524n   27.7785p    1.0284m  398.6034n  541.9378u
  gmb        9.0153f  396.3147n    9.0153f   12.2871n  397.2415n   56.5987n
  cdtot    336.2725a  188.8329a  336.2725a  302.0269a  136.5028a  603.8809a
  cgtot    345.1473a  145.9309a  345.1473a  268.0839a  145.9373a  559.3050a
  cstot    441.2300a  188.9915a  441.2300a  274.2096a  254.7099a  563.7338a
  cbtot    477.4106a  267.5989a  477.4106a  301.4268a  280.9808a  602.0626a
  cgs      161.3031a   49.0195a  161.3031a  150.4909a   79.0710a  326.2819a
  cgd      161.3169a   79.0646a  161.3169a  116.6386a   49.0195a  230.4113a



 ******  
 first line of the netlist must be blank.

  ******  transient analysis tnom=  25.000 temp=  25.000 *****
   pow=  5.4747E-07  from=  1.0000E-09     to=  1.7000E-07
x

        time    voltage      voltage      voltage    
                    out           a            b     
    0.           74.4031u      0.           0.       
   10.00000p     74.4031u      0.           0.       
   20.00000p     74.4031u      0.           0.       
   30.00000p     74.4031u      0.           0.       
   40.00000p     74.4031u      0.           0.       
   50.00000p     74.4031u      0.           0.       
   60.00000p     74.4031u      0.           0.       
   70.00000p     74.4031u      0.           0.       
   80.00000p     74.4031u      0.           0.       
   90.00000p     74.4031u      0.           0.       
  100.00000p     74.4031u      0.           0.       
  110.00000p     74.4031u      0.           0.       
  120.00000p     74.4031u      0.           0.       
  130.00000p     74.4031u      0.           0.       
  140.00000p     74.4031u      0.           0.       
  150.00000p     74.4031u      0.           0.       
  160.00000p     74.4031u      0.           0.       
  170.00000p     74.4031u      0.           0.       
  180.00000p     74.4031u      0.           0.       
  190.00000p     74.4031u      0.           0.       
  200.00000p     74.4031u      0.           0.       
  210.00000p     74.4031u      0.           0.       
  220.00000p     74.4031u      0.           0.       
  230.00000p     74.4031u      0.           0.       
  240.00000p     74.4031u      0.           0.       
  250.00000p     74.4031u      0.           0.       
  260.00000p     74.4031u      0.           0.       
  270.00000p     74.4031u      0.           0.       
  280.00000p     74.4031u      0.           0.       
  290.00000p     74.4031u      0.           0.       
  300.00000p     74.4031u      0.           0.       
  310.00000p     74.4031u      0.           0.       
  320.00000p     74.4031u      0.           0.       
  330.00000p     74.4031u      0.           0.       
  340.00000p     74.4031u      0.           0.       
  350.00000p     74.4031u      0.           0.       
  360.00000p     74.4031u      0.           0.       
  370.00000p     74.4031u      0.           0.       
  380.00000p     74.4031u      0.           0.       
  390.00000p     74.4031u      0.           0.       
  400.00000p     74.4031u      0.           0.       
  410.00000p     74.4031u      0.           0.       
  420.00000p     74.4031u      0.           0.       
  430.00000p     74.4031u      0.           0.       
  440.00000p     74.4031u      0.           0.       
  450.00000p     74.4031u      0.           0.       
  460.00000p     74.4031u      0.           0.       
  470.00000p     74.4031u      0.           0.       
  480.00000p     74.4031u      0.           0.       
  490.00000p     74.4031u      0.           0.       
  500.00000p     74.4031u      0.           0.       
  510.00000p     74.4031u      0.           0.       
  520.00000p     74.4031u      0.           0.       
  530.00000p     74.4031u      0.           0.       
  540.00000p     74.4031u      0.           0.       
  550.00000p     74.4031u      0.           0.       
  560.00000p     74.4031u      0.           0.       
  570.00000p     74.4031u      0.           0.       
  580.00000p     74.4031u      0.           0.       
  590.00000p     74.4031u      0.           0.       
  600.00000p     74.4031u      0.           0.       
  610.00000p     74.4031u      0.           0.       
  620.00000p     74.4031u      0.           0.       
  630.00000p     74.4031u      0.           0.       
  640.00000p     74.4031u      0.           0.       
  650.00000p     74.4031u      0.           0.       
  660.00000p     74.4031u      0.           0.       
  670.00000p     74.4031u      0.           0.       
  680.00000p     74.4031u      0.           0.       
  690.00000p     74.4031u      0.           0.       
  700.00000p     74.4031u      0.           0.       
  710.00000p     74.4031u      0.           0.       
  720.00000p     74.4031u      0.           0.       
  730.00000p     74.4031u      0.           0.       
  740.00000p     74.4031u      0.           0.       
  750.00000p     74.4031u      0.           0.       
  760.00000p     74.4031u      0.           0.       
  770.00000p     74.4031u      0.           0.       
  780.00000p     74.4031u      0.           0.       
  790.00000p     74.4031u      0.           0.       
  800.00000p     74.4031u      0.           0.       
  810.00000p     74.4031u      0.           0.       
  820.00000p     74.4031u      0.           0.       
  830.00000p     74.4031u      0.           0.       
  840.00000p     74.4031u      0.           0.       
  850.00000p     74.4031u      0.           0.       
  860.00000p     74.4031u      0.           0.       
  870.00000p     74.4031u      0.           0.       
  880.00000p     74.4031u      0.           0.       
  890.00000p     74.4031u      0.           0.       
  900.00000p     74.4031u      0.           0.       
  910.00000p     74.4031u      0.           0.       
  920.00000p     74.4031u      0.           0.       
  930.00000p     74.4031u      0.           0.       
  940.00000p     74.4031u      0.           0.       
  950.00000p     74.4031u      0.           0.       
  960.00000p     74.4031u      0.           0.       
  970.00000p     74.4031u      0.           0.       
  980.00000p     74.4031u      0.           0.       
  990.00000p     74.4031u      0.           0.       
    1.00000n     74.4031u      0.           0.       
    1.01000n     74.4031u      0.           0.       
    1.02000n     74.4031u      0.           0.       
    1.03000n     74.4031u      0.           0.       
    1.04000n     74.4031u      0.           0.       
    1.05000n     74.4031u      0.           0.       
    1.06000n     74.4031u      0.           0.       
    1.07000n     74.4031u      0.           0.       
    1.08000n     74.4031u      0.           0.       
    1.09000n     74.4031u      0.           0.       
    1.10000n     74.4031u      0.           0.       
    1.11000n     74.4031u      0.           0.       
    1.12000n     74.4031u      0.           0.       
    1.13000n     74.4031u      0.           0.       
    1.14000n     74.4031u      0.           0.       
    1.15000n     74.4031u      0.           0.       
    1.16000n     74.4031u      0.           0.       
    1.17000n     74.4031u      0.           0.       
    1.18000n     74.4031u      0.           0.       
    1.19000n     74.4031u      0.           0.       
    1.20000n     74.4031u      0.           0.       
    1.21000n     74.4031u      0.           0.       
    1.22000n     74.4031u      0.           0.       
    1.23000n     74.4031u      0.           0.       
    1.24000n     74.4031u      0.           0.       
    1.25000n     74.4031u      0.           0.       
    1.26000n     74.4031u      0.           0.       
    1.27000n     74.4031u      0.           0.       
    1.28000n     74.4031u      0.           0.       
    1.29000n     74.4031u      0.           0.       
    1.30000n     74.4031u      0.           0.       
    1.31000n     74.4031u      0.           0.       
    1.32000n     74.4031u      0.           0.       
    1.33000n     74.4031u      0.           0.       
    1.34000n     74.4031u      0.           0.       
    1.35000n     74.4031u      0.           0.       
    1.36000n     74.4031u      0.           0.       
    1.37000n     74.4031u      0.           0.       
    1.38000n     74.4031u      0.           0.       
    1.39000n     74.4031u      0.           0.       
    1.40000n     74.4031u      0.           0.       
    1.41000n     74.4031u      0.           0.       
    1.42000n     74.4031u      0.           0.       
    1.43000n     74.4031u      0.           0.       
    1.44000n     74.4031u      0.           0.       
    1.45000n     74.4031u      0.           0.       
    1.46000n     74.4031u      0.           0.       
    1.47000n     74.4031u      0.           0.       
    1.48000n     74.4031u      0.           0.       
    1.49000n     74.4031u      0.           0.       
    1.50000n     74.4031u      0.           0.       
    1.51000n     74.4031u      0.           0.       
    1.52000n     74.4031u      0.           0.       
    1.53000n     74.4031u      0.           0.       
    1.54000n     74.4031u      0.           0.       
    1.55000n     74.4031u      0.           0.       
    1.56000n     74.4031u      0.           0.       
    1.57000n     74.4031u      0.           0.       
    1.58000n     74.4031u      0.           0.       
    1.59000n     74.4031u      0.           0.       
    1.60000n     74.4031u      0.           0.       
    1.61000n     74.4031u      0.           0.       
    1.62000n     74.4031u      0.           0.       
    1.63000n     74.4031u      0.           0.       
    1.64000n     74.4031u      0.           0.       
    1.65000n     74.4031u      0.           0.       
    1.66000n     74.4031u      0.           0.       
    1.67000n     74.4031u      0.           0.       
    1.68000n     74.4031u      0.           0.       
    1.69000n     74.4031u      0.           0.       
    1.70000n     74.4031u      0.           0.       
    1.71000n     74.4031u      0.           0.       
    1.72000n     74.4031u      0.           0.       
    1.73000n     74.4031u      0.           0.       
    1.74000n     74.4031u      0.           0.       
    1.75000n     74.4031u      0.           0.       
    1.76000n     74.4031u      0.           0.       
    1.77000n     74.4031u      0.           0.       
    1.78000n     74.4031u      0.           0.       
    1.79000n     74.4031u      0.           0.       
    1.80000n     74.4031u      0.           0.       
    1.81000n     74.4031u      0.           0.       
    1.82000n     74.4031u      0.           0.       
    1.83000n     74.4031u      0.           0.       
    1.84000n     74.4031u      0.           0.       
    1.85000n     74.4031u      0.           0.       
    1.86000n     74.4031u      0.           0.       
    1.87000n     74.4031u      0.           0.       
    1.88000n     74.4031u      0.           0.       
    1.89000n     74.4031u      0.           0.       
    1.90000n     74.4031u      0.           0.       
    1.91000n     74.4031u      0.           0.       
    1.92000n     74.4031u      0.           0.       
    1.93000n     74.4031u      0.           0.       
    1.94000n     74.4031u      0.           0.       
    1.95000n     74.4031u      0.           0.       
    1.96000n     74.4031u      0.           0.       
    1.97000n     74.4031u      0.           0.       
    1.98000n     74.4031u      0.           0.       
    1.99000n     74.4031u      0.           0.       
    2.00000n     74.4031u      0.           0.       
    2.01000n     74.4031u      0.           0.       
    2.02000n     74.4031u      0.           0.       
    2.03000n     74.4031u      0.           0.       
    2.04000n     74.4031u      0.           0.       
    2.05000n     74.4031u      0.           0.       
    2.06000n     74.4031u      0.           0.       
    2.07000n     74.4031u      0.           0.       
    2.08000n     74.4031u      0.           0.       
    2.09000n     74.4031u      0.           0.       
    2.10000n     74.4031u      0.           0.       
    2.11000n     74.4031u      0.           0.       
    2.12000n     74.4031u      0.           0.       
    2.13000n     74.4031u      0.           0.       
    2.14000n     74.4031u      0.           0.       
    2.15000n     74.4031u      0.           0.       
    2.16000n     74.4031u      0.           0.       
    2.17000n     74.4031u      0.           0.       
    2.18000n     74.4031u      0.           0.       
    2.19000n     74.4031u      0.           0.       
    2.20000n     74.4031u      0.           0.       
    2.21000n     74.4031u      0.           0.       
    2.22000n     74.4031u      0.           0.       
    2.23000n     74.4031u      0.           0.       
    2.24000n     74.4031u      0.           0.       
    2.25000n     74.4031u      0.           0.       
    2.26000n     74.4031u      0.           0.       
    2.27000n     74.4031u      0.           0.       
    2.28000n     74.4031u      0.           0.       
    2.29000n     74.4031u      0.           0.       
    2.30000n     74.4031u      0.           0.       
    2.31000n     74.4031u      0.           0.       
    2.32000n     74.4031u      0.           0.       
    2.33000n     74.4031u      0.           0.       
    2.34000n     74.4031u      0.           0.       
    2.35000n     74.4031u      0.           0.       
    2.36000n     74.4031u      0.           0.       
    2.37000n     74.4031u      0.           0.       
    2.38000n     74.4031u      0.           0.       
    2.39000n     74.4031u      0.           0.       
    2.40000n     74.4031u      0.           0.       
    2.41000n     74.4031u      0.           0.       
    2.42000n     74.4031u      0.           0.       
    2.43000n     74.4031u      0.           0.       
    2.44000n     74.4031u      0.           0.       
    2.45000n     74.4031u      0.           0.       
    2.46000n     74.4031u      0.           0.       
    2.47000n     74.4031u      0.           0.       
    2.48000n     74.4031u      0.           0.       
    2.49000n     74.4031u      0.           0.       
    2.50000n     74.4031u      0.           0.       
    2.51000n     74.4031u      0.           0.       
    2.52000n     74.4031u      0.           0.       
    2.53000n     74.4031u      0.           0.       
    2.54000n     74.4031u      0.           0.       
    2.55000n     74.4031u      0.           0.       
    2.56000n     74.4031u      0.           0.       
    2.57000n     74.4031u      0.           0.       
    2.58000n     74.4031u      0.           0.       
    2.59000n     74.4031u      0.           0.       
    2.60000n     74.4031u      0.           0.       
    2.61000n     74.4031u      0.           0.       
    2.62000n     74.4031u      0.           0.       
    2.63000n     74.4031u      0.           0.       
    2.64000n     74.4031u      0.           0.       
    2.65000n     74.4031u      0.           0.       
    2.66000n     74.4031u      0.           0.       
    2.67000n     74.4031u      0.           0.       
    2.68000n     74.4031u      0.           0.       
    2.69000n     74.4031u      0.           0.       
    2.70000n     74.4031u      0.           0.       
    2.71000n     74.4031u      0.           0.       
    2.72000n     74.4031u      0.           0.       
    2.73000n     74.4031u      0.           0.       
    2.74000n     74.4031u      0.           0.       
    2.75000n     74.4031u      0.           0.       
    2.76000n     74.4031u      0.           0.       
    2.77000n     74.4031u      0.           0.       
    2.78000n     74.4031u      0.           0.       
    2.79000n     74.4031u      0.           0.       
    2.80000n     74.4031u      0.           0.       
    2.81000n     74.4031u      0.           0.       
    2.82000n     74.4031u      0.           0.       
    2.83000n     74.4031u      0.           0.       
    2.84000n     74.4031u      0.           0.       
    2.85000n     74.4031u      0.           0.       
    2.86000n     74.4031u      0.           0.       
    2.87000n     74.4031u      0.           0.       
    2.88000n     74.4031u      0.           0.       
    2.89000n     74.4031u      0.           0.       
    2.90000n     74.4031u      0.           0.       
    2.91000n     74.4031u      0.           0.       
    2.92000n     74.4031u      0.           0.       
    2.93000n     74.4031u      0.           0.       
    2.94000n     74.4031u      0.           0.       
    2.95000n     74.4031u      0.           0.       
    2.96000n     74.4031u      0.           0.       
    2.97000n     74.4031u      0.           0.       
    2.98000n     74.4031u      0.           0.       
    2.99000n     74.4031u      0.           0.       
    3.00000n     74.4031u      0.           0.       
    3.01000n     74.4031u      0.           0.       
    3.02000n     74.4031u      0.           0.       
    3.03000n     74.4031u      0.           0.       
    3.04000n     74.4031u      0.           0.       
    3.05000n     74.4031u      0.           0.       
    3.06000n     74.4031u      0.           0.       
    3.07000n     74.4031u      0.           0.       
    3.08000n     74.4031u      0.           0.       
    3.09000n     74.4031u      0.           0.       
    3.10000n     74.4031u      0.           0.       
    3.11000n     74.4031u      0.           0.       
    3.12000n     74.4031u      0.           0.       
    3.13000n     74.4031u      0.           0.       
    3.14000n     74.4031u      0.           0.       
    3.15000n     74.4031u      0.           0.       
    3.16000n     74.4031u      0.           0.       
    3.17000n     74.4031u      0.           0.       
    3.18000n     74.4031u      0.           0.       
    3.19000n     74.4031u      0.           0.       
    3.20000n     74.4031u      0.           0.       
    3.21000n     74.4031u      0.           0.       
    3.22000n     74.4031u      0.           0.       
    3.23000n     74.4031u      0.           0.       
    3.24000n     74.4031u      0.           0.       
    3.25000n     74.4031u      0.           0.       
    3.26000n     74.4031u      0.           0.       
    3.27000n     74.4031u      0.           0.       
    3.28000n     74.4031u      0.           0.       
    3.29000n     74.4031u      0.           0.       
    3.30000n     74.4031u      0.           0.       
    3.31000n     74.4031u      0.           0.       
    3.32000n     74.4031u      0.           0.       
    3.33000n     74.4031u      0.           0.       
    3.34000n     74.4031u      0.           0.       
    3.35000n     74.4031u      0.           0.       
    3.36000n     74.4031u      0.           0.       
    3.37000n     74.4031u      0.           0.       
    3.38000n     74.4031u      0.           0.       
    3.39000n     74.4031u      0.           0.       
    3.40000n     74.4031u      0.           0.       
    3.41000n     74.4031u      0.           0.       
    3.42000n     74.4031u      0.           0.       
    3.43000n     74.4031u      0.           0.       
    3.44000n     74.4031u      0.           0.       
    3.45000n     74.4031u      0.           0.       
    3.46000n     74.4031u      0.           0.       
    3.47000n     74.4031u      0.           0.       
    3.48000n     74.4031u      0.           0.       
    3.49000n     74.4031u      0.           0.       
    3.50000n     74.4031u      0.           0.       
    3.51000n     74.4031u      0.           0.       
    3.52000n     74.4031u      0.           0.       
    3.53000n     74.4031u      0.           0.       
    3.54000n     74.4031u      0.           0.       
    3.55000n     74.4031u      0.           0.       
    3.56000n     74.4031u      0.           0.       
    3.57000n     74.4031u      0.           0.       
    3.58000n     74.4031u      0.           0.       
    3.59000n     74.4031u      0.           0.       
    3.60000n     74.4031u      0.           0.       
    3.61000n     74.4031u      0.           0.       
    3.62000n     74.4031u      0.           0.       
    3.63000n     74.4031u      0.           0.       
    3.64000n     74.4031u      0.           0.       
    3.65000n     74.4031u      0.           0.       
    3.66000n     74.4031u      0.           0.       
    3.67000n     74.4031u      0.           0.       
    3.68000n     74.4031u      0.           0.       
    3.69000n     74.4031u      0.           0.       
    3.70000n     74.4031u      0.           0.       
    3.71000n     74.4031u      0.           0.       
    3.72000n     74.4031u      0.           0.       
    3.73000n     74.4031u      0.           0.       
    3.74000n     74.4031u      0.           0.       
    3.75000n     74.4031u      0.           0.       
    3.76000n     74.4031u      0.           0.       
    3.77000n     74.4031u      0.           0.       
    3.78000n     74.4031u      0.           0.       
    3.79000n     74.4031u      0.           0.       
    3.80000n     74.4031u      0.           0.       
    3.81000n     74.4031u      0.           0.       
    3.82000n     74.4031u      0.           0.       
    3.83000n     74.4031u      0.           0.       
    3.84000n     74.4031u      0.           0.       
    3.85000n     74.4031u      0.           0.       
    3.86000n     74.4031u      0.           0.       
    3.87000n     74.4031u      0.           0.       
    3.88000n     74.4031u      0.           0.       
    3.89000n     74.4031u      0.           0.       
    3.90000n     74.4031u      0.           0.       
    3.91000n     74.4031u      0.           0.       
    3.92000n     74.4031u      0.           0.       
    3.93000n     74.4031u      0.           0.       
    3.94000n     74.4031u      0.           0.       
    3.95000n     74.4031u      0.           0.       
    3.96000n     74.4031u      0.           0.       
    3.97000n     74.4031u      0.           0.       
    3.98000n     74.4031u      0.           0.       
    3.99000n     74.4031u      0.           0.       
    4.00000n     74.4031u      0.           0.       
    4.01000n     74.4031u      0.           0.       
    4.02000n     74.4031u      0.           0.       
    4.03000n     74.4031u      0.           0.       
    4.04000n     74.4031u      0.           0.       
    4.05000n     74.4031u      0.           0.       
    4.06000n     74.4031u      0.           0.       
    4.07000n     74.4031u      0.           0.       
    4.08000n     74.4031u      0.           0.       
    4.09000n     74.4031u      0.           0.       
    4.10000n     74.4031u      0.           0.       
    4.11000n     74.4031u      0.           0.       
    4.12000n     74.4031u      0.           0.       
    4.13000n     74.4031u      0.           0.       
    4.14000n     74.4031u      0.           0.       
    4.15000n     74.4031u      0.           0.       
    4.16000n     74.4031u      0.           0.       
    4.17000n     74.4031u      0.           0.       
    4.18000n     74.4031u      0.           0.       
    4.19000n     74.4031u      0.           0.       
    4.20000n     74.4031u      0.           0.       
    4.21000n     74.4031u      0.           0.       
    4.22000n     74.4031u      0.           0.       
    4.23000n     74.4031u      0.           0.       
    4.24000n     74.4031u      0.           0.       
    4.25000n     74.4031u      0.           0.       
    4.26000n     74.4031u      0.           0.       
    4.27000n     74.4031u      0.           0.       
    4.28000n     74.4031u      0.           0.       
    4.29000n     74.4031u      0.           0.       
    4.30000n     74.4031u      0.           0.       
    4.31000n     74.4031u      0.           0.       
    4.32000n     74.4031u      0.           0.       
    4.33000n     74.4031u      0.           0.       
    4.34000n     74.4031u      0.           0.       
    4.35000n     74.4031u      0.           0.       
    4.36000n     74.4031u      0.           0.       
    4.37000n     74.4031u      0.           0.       
    4.38000n     74.4031u      0.           0.       
    4.39000n     74.4031u      0.           0.       
    4.40000n     74.4031u      0.           0.       
    4.41000n     74.4031u      0.           0.       
    4.42000n     74.4031u      0.           0.       
    4.43000n     74.4031u      0.           0.       
    4.44000n     74.4031u      0.           0.       
    4.45000n     74.4031u      0.           0.       
    4.46000n     74.4031u      0.           0.       
    4.47000n     74.4031u      0.           0.       
    4.48000n     74.4031u      0.           0.       
    4.49000n     74.4031u      0.           0.       
    4.50000n     74.4031u      0.           0.       
    4.51000n     74.4031u      0.           0.       
    4.52000n     74.4031u      0.           0.       
    4.53000n     74.4031u      0.           0.       
    4.54000n     74.4031u      0.           0.       
    4.55000n     74.4031u      0.           0.       
    4.56000n     74.4031u      0.           0.       
    4.57000n     74.4031u      0.           0.       
    4.58000n     74.4031u      0.           0.       
    4.59000n     74.4031u      0.           0.       
    4.60000n     74.4031u      0.           0.       
    4.61000n     74.4031u      0.           0.       
    4.62000n     74.4031u      0.           0.       
    4.63000n     74.4031u      0.           0.       
    4.64000n     74.4031u      0.           0.       
    4.65000n     74.4031u      0.           0.       
    4.66000n     74.4031u      0.           0.       
    4.67000n     74.4031u      0.           0.       
    4.68000n     74.4031u      0.           0.       
    4.69000n     74.4031u      0.           0.       
    4.70000n     74.4031u      0.           0.       
    4.71000n     74.4031u      0.           0.       
    4.72000n     74.4031u      0.           0.       
    4.73000n     74.4031u      0.           0.       
    4.74000n     74.4031u      0.           0.       
    4.75000n     74.4031u      0.           0.       
    4.76000n     74.4031u      0.           0.       
    4.77000n     74.4031u      0.           0.       
    4.78000n     74.4031u      0.           0.       
    4.79000n     74.4031u      0.           0.       
    4.80000n     74.4031u      0.           0.       
    4.81000n     74.4031u      0.           0.       
    4.82000n     74.4031u      0.           0.       
    4.83000n     74.4031u      0.           0.       
    4.84000n     74.4031u      0.           0.       
    4.85000n     74.4031u      0.           0.       
    4.86000n     74.4031u      0.           0.       
    4.87000n     74.4031u      0.           0.       
    4.88000n     74.4031u      0.           0.       
    4.89000n     74.4031u      0.           0.       
    4.90000n     74.4031u      0.           0.       
    4.91000n     74.4031u      0.           0.       
    4.92000n     74.4031u      0.           0.       
    4.93000n     74.4031u      0.           0.       
    4.94000n     74.4031u      0.           0.       
    4.95000n     74.4031u      0.           0.       
    4.96000n     74.4031u      0.           0.       
    4.97000n     74.4031u      0.           0.       
    4.98000n     74.4031u      0.           0.       
    4.99000n     74.4031u      0.           0.       
    5.00000n     74.4031u      0.           0.       
    5.01000n     74.4031u      0.           0.       
    5.02000n     74.4031u      0.           0.       
    5.03000n     74.4031u      0.           0.       
    5.04000n     74.4031u      0.           0.       
    5.05000n     74.4031u      0.           0.       
    5.06000n     74.4031u      0.           0.       
    5.07000n     74.4031u      0.           0.       
    5.08000n     74.4031u      0.           0.       
    5.09000n     74.4031u      0.           0.       
    5.10000n     74.4031u      0.           0.       
    5.11000n     74.4031u      0.           0.       
    5.12000n     74.4031u      0.           0.       
    5.13000n     74.4031u      0.           0.       
    5.14000n     74.4031u      0.           0.       
    5.15000n     74.4031u      0.           0.       
    5.16000n     74.4031u      0.           0.       
    5.17000n     74.4031u      0.           0.       
    5.18000n     74.4031u      0.           0.       
    5.19000n     74.4031u      0.           0.       
    5.20000n     74.4031u      0.           0.       
    5.21000n     74.4031u      0.           0.       
    5.22000n     74.4031u      0.           0.       
    5.23000n     74.4031u      0.           0.       
    5.24000n     74.4031u      0.           0.       
    5.25000n     74.4031u      0.           0.       
    5.26000n     74.4031u      0.           0.       
    5.27000n     74.4031u      0.           0.       
    5.28000n     74.4031u      0.           0.       
    5.29000n     74.4031u      0.           0.       
    5.30000n     74.4031u      0.           0.       
    5.31000n     74.4031u      0.           0.       
    5.32000n     74.4031u      0.           0.       
    5.33000n     74.4031u      0.           0.       
    5.34000n     74.4031u      0.           0.       
    5.35000n     74.4031u      0.           0.       
    5.36000n     74.4031u      0.           0.       
    5.37000n     74.4031u      0.           0.       
    5.38000n     74.4031u      0.           0.       
    5.39000n     74.4031u      0.           0.       
    5.40000n     74.4031u      0.           0.       
    5.41000n     74.4031u      0.           0.       
    5.42000n     74.4031u      0.           0.       
    5.43000n     74.4031u      0.           0.       
    5.44000n     74.4031u      0.           0.       
    5.45000n     74.4031u      0.           0.       
    5.46000n     74.4031u      0.           0.       
    5.47000n     74.4031u      0.           0.       
    5.48000n     74.4031u      0.           0.       
    5.49000n     74.4031u      0.           0.       
    5.50000n     74.4031u      0.           0.       
    5.51000n     74.4031u      0.           0.       
    5.52000n     74.4031u      0.           0.       
    5.53000n     74.4031u      0.           0.       
    5.54000n     74.4031u      0.           0.       
    5.55000n     74.4031u      0.           0.       
    5.56000n     74.4031u      0.           0.       
    5.57000n     74.4031u      0.           0.       
    5.58000n     74.4031u      0.           0.       
    5.59000n     74.4031u      0.           0.       
    5.60000n     74.4031u      0.           0.       
    5.61000n     74.4031u      0.           0.       
    5.62000n     74.4031u      0.           0.       
    5.63000n     74.4031u      0.           0.       
    5.64000n     74.4031u      0.           0.       
    5.65000n     74.4031u      0.           0.       
    5.66000n     74.4031u      0.           0.       
    5.67000n     74.4031u      0.           0.       
    5.68000n     74.4031u      0.           0.       
    5.69000n     74.4031u      0.           0.       
    5.70000n     74.4031u      0.           0.       
    5.71000n     74.4031u      0.           0.       
    5.72000n     74.4031u      0.           0.       
    5.73000n     74.4031u      0.           0.       
    5.74000n     74.4031u      0.           0.       
    5.75000n     74.4031u      0.           0.       
    5.76000n     74.4031u      0.           0.       
    5.77000n     74.4031u      0.           0.       
    5.78000n     74.4031u      0.           0.       
    5.79000n     74.4031u      0.           0.       
    5.80000n     74.4031u      0.           0.       
    5.81000n     74.4031u      0.           0.       
    5.82000n     74.4031u      0.           0.       
    5.83000n     74.4031u      0.           0.       
    5.84000n     74.4031u      0.           0.       
    5.85000n     74.4031u      0.           0.       
    5.86000n     74.4031u      0.           0.       
    5.87000n     74.4031u      0.           0.       
    5.88000n     74.4031u      0.           0.       
    5.89000n     74.4031u      0.           0.       
    5.90000n     74.4031u      0.           0.       
    5.91000n     74.4031u      0.           0.       
    5.92000n     74.4031u      0.           0.       
    5.93000n     74.4031u      0.           0.       
    5.94000n     74.4031u      0.           0.       
    5.95000n     74.4031u      0.           0.       
    5.96000n     74.4031u      0.           0.       
    5.97000n     74.4031u      0.           0.       
    5.98000n     74.4031u      0.           0.       
    5.99000n     74.4031u      0.           0.       
    6.00000n     74.4031u      0.           0.       
    6.01000n     74.4031u      0.           0.       
    6.02000n     74.4031u      0.           0.       
    6.03000n     74.4031u      0.           0.       
    6.04000n     74.4031u      0.           0.       
    6.05000n     74.4031u      0.           0.       
    6.06000n     74.4031u      0.           0.       
    6.07000n     74.4031u      0.           0.       
    6.08000n     74.4031u      0.           0.       
    6.09000n     74.4031u      0.           0.       
    6.10000n     74.4031u      0.           0.       
    6.11000n     74.4031u      0.           0.       
    6.12000n     74.4031u      0.           0.       
    6.13000n     74.4031u      0.           0.       
    6.14000n     74.4031u      0.           0.       
    6.15000n     74.4031u      0.           0.       
    6.16000n     74.4031u      0.           0.       
    6.17000n     74.4031u      0.           0.       
    6.18000n     74.4031u      0.           0.       
    6.19000n     74.4031u      0.           0.       
    6.20000n     74.4031u      0.           0.       
    6.21000n     74.4031u      0.           0.       
    6.22000n     74.4031u      0.           0.       
    6.23000n     74.4031u      0.           0.       
    6.24000n     74.4031u      0.           0.       
    6.25000n     74.4031u      0.           0.       
    6.26000n     74.4031u      0.           0.       
    6.27000n     74.4031u      0.           0.       
    6.28000n     74.4031u      0.           0.       
    6.29000n     74.4031u      0.           0.       
    6.30000n     74.4031u      0.           0.       
    6.31000n     74.4031u      0.           0.       
    6.32000n     74.4031u      0.           0.       
    6.33000n     74.4031u      0.           0.       
    6.34000n     74.4031u      0.           0.       
    6.35000n     74.4031u      0.           0.       
    6.36000n     74.4031u      0.           0.       
    6.37000n     74.4031u      0.           0.       
    6.38000n     74.4031u      0.           0.       
    6.39000n     74.4031u      0.           0.       
    6.40000n     74.4031u      0.           0.       
    6.41000n     74.4031u      0.           0.       
    6.42000n     74.4031u      0.           0.       
    6.43000n     74.4031u      0.           0.       
    6.44000n     74.4031u      0.           0.       
    6.45000n     74.4031u      0.           0.       
    6.46000n     74.4031u      0.           0.       
    6.47000n     74.4031u      0.           0.       
    6.48000n     74.4031u      0.           0.       
    6.49000n     74.4031u      0.           0.       
    6.50000n     74.4031u      0.           0.       
    6.51000n     74.4031u      0.           0.       
    6.52000n     74.4031u      0.           0.       
    6.53000n     74.4031u      0.           0.       
    6.54000n     74.4031u      0.           0.       
    6.55000n     74.4031u      0.           0.       
    6.56000n     74.4031u      0.           0.       
    6.57000n     74.4031u      0.           0.       
    6.58000n     74.4031u      0.           0.       
    6.59000n     74.4031u      0.           0.       
    6.60000n     74.4031u      0.           0.       
    6.61000n     74.4031u      0.           0.       
    6.62000n     74.4031u      0.           0.       
    6.63000n     74.4031u      0.           0.       
    6.64000n     74.4031u      0.           0.       
    6.65000n     74.4031u      0.           0.       
    6.66000n     74.4031u      0.           0.       
    6.67000n     74.4031u      0.           0.       
    6.68000n     74.4031u      0.           0.       
    6.69000n     74.4031u      0.           0.       
    6.70000n     74.4031u      0.           0.       
    6.71000n     74.4031u      0.           0.       
    6.72000n     74.4031u      0.           0.       
    6.73000n     74.4031u      0.           0.       
    6.74000n     74.4031u      0.           0.       
    6.75000n     74.4031u      0.           0.       
    6.76000n     74.4031u      0.           0.       
    6.77000n     74.4031u      0.           0.       
    6.78000n     74.4031u      0.           0.       
    6.79000n     74.4031u      0.           0.       
    6.80000n     74.4031u      0.           0.       
    6.81000n     74.4031u      0.           0.       
    6.82000n     74.4031u      0.           0.       
    6.83000n     74.4031u      0.           0.       
    6.84000n     74.4031u      0.           0.       
    6.85000n     74.4031u      0.           0.       
    6.86000n     74.4031u      0.           0.       
    6.87000n     74.4031u      0.           0.       
    6.88000n     74.4031u      0.           0.       
    6.89000n     74.4031u      0.           0.       
    6.90000n     74.4031u      0.           0.       
    6.91000n     74.4031u      0.           0.       
    6.92000n     74.4031u      0.           0.       
    6.93000n     74.4031u      0.           0.       
    6.94000n     74.4031u      0.           0.       
    6.95000n     74.4031u      0.           0.       
    6.96000n     74.4031u      0.           0.       
    6.97000n     74.4031u      0.           0.       
    6.98000n     74.4031u      0.           0.       
    6.99000n     74.4031u      0.           0.       
    7.00000n     74.4031u      0.           0.       
    7.01000n     74.4031u      0.           0.       
    7.02000n     74.4031u      0.           0.       
    7.03000n     74.4031u      0.           0.       
    7.04000n     74.4031u      0.           0.       
    7.05000n     74.4031u      0.           0.       
    7.06000n     74.4031u      0.           0.       
    7.07000n     74.4031u      0.           0.       
    7.08000n     74.4031u      0.           0.       
    7.09000n     74.4031u      0.           0.       
    7.10000n     74.4031u      0.           0.       
    7.11000n     74.4031u      0.           0.       
    7.12000n     74.4031u      0.           0.       
    7.13000n     74.4031u      0.           0.       
    7.14000n     74.4031u      0.           0.       
    7.15000n     74.4031u      0.           0.       
    7.16000n     74.4031u      0.           0.       
    7.17000n     74.4031u      0.           0.       
    7.18000n     74.4031u      0.           0.       
    7.19000n     74.4031u      0.           0.       
    7.20000n     74.4031u      0.           0.       
    7.21000n     74.4031u      0.           0.       
    7.22000n     74.4031u      0.           0.       
    7.23000n     74.4031u      0.           0.       
    7.24000n     74.4031u      0.           0.       
    7.25000n     74.4031u      0.           0.       
    7.26000n     74.4031u      0.           0.       
    7.27000n     74.4031u      0.           0.       
    7.28000n     74.4031u      0.           0.       
    7.29000n     74.4031u      0.           0.       
    7.30000n     74.4031u      0.           0.       
    7.31000n     74.4031u      0.           0.       
    7.32000n     74.4031u      0.           0.       
    7.33000n     74.4031u      0.           0.       
    7.34000n     74.4031u      0.           0.       
    7.35000n     74.4031u      0.           0.       
    7.36000n     74.4031u      0.           0.       
    7.37000n     74.4031u      0.           0.       
    7.38000n     74.4031u      0.           0.       
    7.39000n     74.4031u      0.           0.       
    7.40000n     74.4031u      0.           0.       
    7.41000n     74.4031u      0.           0.       
    7.42000n     74.4031u      0.           0.       
    7.43000n     74.4031u      0.           0.       
    7.44000n     74.4031u      0.           0.       
    7.45000n     74.4031u      0.           0.       
    7.46000n     74.4031u      0.           0.       
    7.47000n     74.4031u      0.           0.       
    7.48000n     74.4031u      0.           0.       
    7.49000n     74.4031u      0.           0.       
    7.50000n    412.5251m      0.           1.0000   
    7.51000n    991.2933m      0.           1.0000   
    7.52000n    999.5567m      0.           1.0000   
    7.53000n    999.4176m      0.           1.0000   
    7.54000n    999.4411m      0.           1.0000   
    7.55000n    999.4487m      0.           1.0000   
    7.56000n    999.4490m      0.           1.0000   
    7.57000n    999.4493m      0.           1.0000   
    7.58000n    999.4496m      0.           1.0000   
    7.59000n    999.4498m      0.           1.0000   
    7.60000n    999.4501m      0.           1.0000   
    7.61000n    999.4503m      0.           1.0000   
    7.62000n    999.4505m      0.           1.0000   
    7.63000n    999.4508m      0.           1.0000   
    7.64000n    999.4510m      0.           1.0000   
    7.65000n    999.4513m      0.           1.0000   
    7.66000n    999.4515m      0.           1.0000   
    7.67000n    999.4517m      0.           1.0000   
    7.68000n    999.4520m      0.           1.0000   
    7.69000n    999.4522m      0.           1.0000   
    7.70000n    999.4524m      0.           1.0000   
    7.71000n    999.4525m      0.           1.0000   
    7.72000n    999.4526m      0.           1.0000   
    7.73000n    999.4527m      0.           1.0000   
    7.74000n    999.4528m      0.           1.0000   
    7.75000n    999.4529m      0.           1.0000   
    7.76000n    999.4530m      0.           1.0000   
    7.77000n    999.4531m      0.           1.0000   
    7.78000n    999.4533m      0.           1.0000   
    7.79000n    999.4534m      0.           1.0000   
    7.80000n    999.4535m      0.           1.0000   
    7.81000n    999.4536m      0.           1.0000   
    7.82000n    999.4537m      0.           1.0000   
    7.83000n    999.4538m      0.           1.0000   
    7.84000n    999.4539m      0.           1.0000   
    7.85000n    999.4540m      0.           1.0000   
    7.86000n    999.4541m      0.           1.0000   
    7.87000n    999.4542m      0.           1.0000   
    7.88000n    999.4544m      0.           1.0000   
    7.89000n    999.4545m      0.           1.0000   
    7.90000n    999.4546m      0.           1.0000   
    7.91000n    999.4547m      0.           1.0000   
    7.92000n    999.4548m      0.           1.0000   
    7.93000n    999.4549m      0.           1.0000   
    7.94000n    999.4550m      0.           1.0000   
    7.95000n    999.4551m      0.           1.0000   
    7.96000n    999.4552m      0.           1.0000   
    7.97000n    999.4553m      0.           1.0000   
    7.98000n    999.4555m      0.           1.0000   
    7.99000n    999.4556m      0.           1.0000   
    8.00000n    999.4557m      0.           1.0000   
    8.01000n    999.4558m      0.           1.0000   
    8.02000n    999.4559m      0.           1.0000   
    8.03000n    999.4560m      0.           1.0000   
    8.04000n    999.4561m      0.           1.0000   
    8.05000n    999.4562m      0.           1.0000   
    8.06000n    999.4563m      0.           1.0000   
    8.07000n    999.4563m      0.           1.0000   
    8.08000n    999.4563m      0.           1.0000   
    8.09000n    999.4562m      0.           1.0000   
    8.10000n    999.4562m      0.           1.0000   
    8.11000n    999.4561m      0.           1.0000   
    8.12000n    999.4561m      0.           1.0000   
    8.13000n    999.4561m      0.           1.0000   
    8.14000n    999.4560m      0.           1.0000   
    8.15000n    999.4560m      0.           1.0000   
    8.16000n    999.4560m      0.           1.0000   
    8.17000n    999.4559m      0.           1.0000   
    8.18000n    999.4559m      0.           1.0000   
    8.19000n    999.4558m      0.           1.0000   
    8.20000n    999.4558m      0.           1.0000   
    8.21000n    999.4558m      0.           1.0000   
    8.22000n    999.4557m      0.           1.0000   
    8.23000n    999.4557m      0.           1.0000   
    8.24000n    999.4557m      0.           1.0000   
    8.25000n    999.4556m      0.           1.0000   
    8.26000n    999.4556m      0.           1.0000   
    8.27000n    999.4555m      0.           1.0000   
    8.28000n    999.4555m      0.           1.0000   
    8.29000n    999.4555m      0.           1.0000   
    8.30000n    999.4554m      0.           1.0000   
    8.31000n    999.4554m      0.           1.0000   
    8.32000n    999.4554m      0.           1.0000   
    8.33000n    999.4553m      0.           1.0000   
    8.34000n    999.4553m      0.           1.0000   
    8.35000n    999.4553m      0.           1.0000   
    8.36000n    999.4552m      0.           1.0000   
    8.37000n    999.4552m      0.           1.0000   
    8.38000n    999.4551m      0.           1.0000   
    8.39000n    999.4551m      0.           1.0000   
    8.40000n    999.4551m      0.           1.0000   
    8.41000n    999.4550m      0.           1.0000   
    8.42000n    999.4550m      0.           1.0000   
    8.43000n    999.4550m      0.           1.0000   
    8.44000n    999.4549m      0.           1.0000   
    8.45000n    999.4549m      0.           1.0000   
    8.46000n    999.4548m      0.           1.0000   
    8.47000n    999.4548m      0.           1.0000   
    8.48000n    999.4548m      0.           1.0000   
    8.49000n    999.4547m      0.           1.0000   
    8.50000n    999.4547m      0.           1.0000   
    8.51000n    999.4547m      0.           1.0000   
    8.52000n    999.4546m      0.           1.0000   
    8.53000n    999.4546m      0.           1.0000   
    8.54000n    999.4545m      0.           1.0000   
    8.55000n    999.4545m      0.           1.0000   
    8.56000n    999.4545m      0.           1.0000   
    8.57000n    999.4544m      0.           1.0000   
    8.58000n    999.4544m      0.           1.0000   
    8.59000n    999.4544m      0.           1.0000   
    8.60000n    999.4543m      0.           1.0000   
    8.61000n    999.4543m      0.           1.0000   
    8.62000n    999.4543m      0.           1.0000   
    8.63000n    999.4542m      0.           1.0000   
    8.64000n    999.4542m      0.           1.0000   
    8.65000n    999.4541m      0.           1.0000   
    8.66000n    999.4541m      0.           1.0000   
    8.67000n    999.4541m      0.           1.0000   
    8.68000n    999.4540m      0.           1.0000   
    8.69000n    999.4540m      0.           1.0000   
    8.70000n    999.4540m      0.           1.0000   
    8.71000n    999.4539m      0.           1.0000   
    8.72000n    999.4539m      0.           1.0000   
    8.73000n    999.4538m      0.           1.0000   
    8.74000n    999.4538m      0.           1.0000   
    8.75000n    999.4538m      0.           1.0000   
    8.76000n    999.4537m      0.           1.0000   
    8.77000n    999.4537m      0.           1.0000   
    8.78000n    999.4537m      0.           1.0000   
    8.79000n    999.4536m      0.           1.0000   
    8.80000n    999.4536m      0.           1.0000   
    8.81000n    999.4536m      0.           1.0000   
    8.82000n    999.4535m      0.           1.0000   
    8.83000n    999.4535m      0.           1.0000   
    8.84000n    999.4534m      0.           1.0000   
    8.85000n    999.4534m      0.           1.0000   
    8.86000n    999.4534m      0.           1.0000   
    8.87000n    999.4533m      0.           1.0000   
    8.88000n    999.4533m      0.           1.0000   
    8.89000n    999.4533m      0.           1.0000   
    8.90000n    999.4532m      0.           1.0000   
    8.91000n    999.4532m      0.           1.0000   
    8.92000n    999.4531m      0.           1.0000   
    8.93000n    999.4531m      0.           1.0000   
    8.94000n    999.4531m      0.           1.0000   
    8.95000n    999.4530m      0.           1.0000   
    8.96000n    999.4530m      0.           1.0000   
    8.97000n    999.4530m      0.           1.0000   
    8.98000n    999.4529m      0.           1.0000   
    8.99000n    999.4529m      0.           1.0000   
    9.00000n    999.4528m      0.           1.0000   
    9.01000n    999.4528m      0.           1.0000   
    9.02000n    999.4528m      0.           1.0000   
    9.03000n    999.4527m      0.           1.0000   
    9.04000n    999.4527m      0.           1.0000   
    9.05000n    999.4527m      0.           1.0000   
    9.06000n    999.4526m      0.           1.0000   
    9.07000n    999.4526m      0.           1.0000   
    9.08000n    999.4526m      0.           1.0000   
    9.09000n    999.4525m      0.           1.0000   
    9.10000n    999.4525m      0.           1.0000   
    9.11000n    999.4524m      0.           1.0000   
    9.12000n    999.4524m      0.           1.0000   
    9.13000n    999.4524m      0.           1.0000   
    9.14000n    999.4523m      0.           1.0000   
    9.15000n    999.4523m      0.           1.0000   
    9.16000n    999.4523m      0.           1.0000   
    9.17000n    999.4522m      0.           1.0000   
    9.18000n    999.4522m      0.           1.0000   
    9.19000n    999.4521m      0.           1.0000   
    9.20000n    999.4521m      0.           1.0000   
    9.21000n    999.4521m      0.           1.0000   
    9.22000n    999.4520m      0.           1.0000   
    9.23000n    999.4520m      0.           1.0000   
    9.24000n    999.4520m      0.           1.0000   
    9.25000n    999.4520m      0.           1.0000   
    9.26000n    999.4520m      0.           1.0000   
    9.27000n    999.4520m      0.           1.0000   
    9.28000n    999.4521m      0.           1.0000   
    9.29000n    999.4521m      0.           1.0000   
    9.30000n    999.4521m      0.           1.0000   
    9.31000n    999.4521m      0.           1.0000   
    9.32000n    999.4521m      0.           1.0000   
    9.33000n    999.4521m      0.           1.0000   
    9.34000n    999.4521m      0.           1.0000   
    9.35000n    999.4522m      0.           1.0000   
    9.36000n    999.4522m      0.           1.0000   
    9.37000n    999.4522m      0.           1.0000   
    9.38000n    999.4522m      0.           1.0000   
    9.39000n    999.4522m      0.           1.0000   
    9.40000n    999.4522m      0.           1.0000   
    9.41000n    999.4522m      0.           1.0000   
    9.42000n    999.4523m      0.           1.0000   
    9.43000n    999.4523m      0.           1.0000   
    9.44000n    999.4523m      0.           1.0000   
    9.45000n    999.4523m      0.           1.0000   
    9.46000n    999.4523m      0.           1.0000   
    9.47000n    999.4523m      0.           1.0000   
    9.48000n    999.4523m      0.           1.0000   
    9.49000n    999.4523m      0.           1.0000   
    9.50000n    999.4524m      0.           1.0000   
    9.51000n    999.4524m      0.           1.0000   
    9.52000n    999.4524m      0.           1.0000   
    9.53000n    999.4524m      0.           1.0000   
    9.54000n    999.4524m      0.           1.0000   
    9.55000n    999.4524m      0.           1.0000   
    9.56000n    999.4524m      0.           1.0000   
    9.57000n    999.4525m      0.           1.0000   
    9.58000n    999.4525m      0.           1.0000   
    9.59000n    999.4525m      0.           1.0000   
    9.60000n    999.4525m      0.           1.0000   
    9.61000n    999.4525m      0.           1.0000   
    9.62000n    999.4525m      0.           1.0000   
    9.63000n    999.4525m      0.           1.0000   
    9.64000n    999.4526m      0.           1.0000   
    9.65000n    999.4526m      0.           1.0000   
    9.66000n    999.4526m      0.           1.0000   
    9.67000n    999.4526m      0.           1.0000   
    9.68000n    999.4526m      0.           1.0000   
    9.69000n    999.4526m      0.           1.0000   
    9.70000n    999.4526m      0.           1.0000   
    9.71000n    999.4527m      0.           1.0000   
    9.72000n    999.4527m      0.           1.0000   
    9.73000n    999.4527m      0.           1.0000   
    9.74000n    999.4527m      0.           1.0000   
    9.75000n    999.4527m      0.           1.0000   
    9.76000n    999.4527m      0.           1.0000   
    9.77000n    999.4527m      0.           1.0000   
    9.78000n    999.4528m      0.           1.0000   
    9.79000n    999.4528m      0.           1.0000   
    9.80000n    999.4528m      0.           1.0000   
    9.81000n    999.4528m      0.           1.0000   
    9.82000n    999.4528m      0.           1.0000   
    9.83000n    999.4528m      0.           1.0000   
    9.84000n    999.4528m      0.           1.0000   
    9.85000n    999.4528m      0.           1.0000   
    9.86000n    999.4529m      0.           1.0000   
    9.87000n    999.4529m      0.           1.0000   
    9.88000n    999.4529m      0.           1.0000   
    9.89000n    999.4529m      0.           1.0000   
    9.90000n    999.4529m      0.           1.0000   
    9.91000n    999.4529m      0.           1.0000   
    9.92000n    999.4529m      0.           1.0000   
    9.93000n    999.4530m      0.           1.0000   
    9.94000n    999.4530m      0.           1.0000   
    9.95000n    999.4530m      0.           1.0000   
    9.96000n    999.4530m      0.           1.0000   
    9.97000n    999.4530m      0.           1.0000   
    9.98000n    999.4530m      0.           1.0000   
    9.99000n    999.4530m      0.           1.0000   
   10.00000n    999.4531m      0.           1.0000   
   10.01000n    999.4531m      0.           1.0000   
   10.02000n    999.4531m      0.           1.0000   
   10.03000n    999.4531m      0.           1.0000   
   10.04000n    999.4531m      0.           1.0000   
   10.05000n    999.4531m      0.           1.0000   
   10.06000n    999.4531m      0.           1.0000   
   10.07000n    999.4532m      0.           1.0000   
   10.08000n    999.4532m      0.           1.0000   
   10.09000n    999.4532m      0.           1.0000   
   10.10000n    999.4532m      0.           1.0000   
   10.11000n    999.4532m      0.           1.0000   
   10.12000n    999.4532m      0.           1.0000   
   10.13000n    999.4532m      0.           1.0000   
   10.14000n    999.4532m      0.           1.0000   
   10.15000n    999.4533m      0.           1.0000   
   10.16000n    999.4533m      0.           1.0000   
   10.17000n    999.4533m      0.           1.0000   
   10.18000n    999.4533m      0.           1.0000   
   10.19000n    999.4533m      0.           1.0000   
   10.20000n    999.4533m      0.           1.0000   
   10.21000n    999.4533m      0.           1.0000   
   10.22000n    999.4534m      0.           1.0000   
   10.23000n    999.4534m      0.           1.0000   
   10.24000n    999.4534m      0.           1.0000   
   10.25000n    999.4534m      0.           1.0000   
   10.26000n    999.4534m      0.           1.0000   
   10.27000n    999.4534m      0.           1.0000   
   10.28000n    999.4534m      0.           1.0000   
   10.29000n    999.4535m      0.           1.0000   
   10.30000n    999.4535m      0.           1.0000   
   10.31000n    999.4535m      0.           1.0000   
   10.32000n    999.4535m      0.           1.0000   
   10.33000n    999.4535m      0.           1.0000   
   10.34000n    999.4535m      0.           1.0000   
   10.35000n    999.4535m      0.           1.0000   
   10.36000n    999.4536m      0.           1.0000   
   10.37000n    999.4536m      0.           1.0000   
   10.38000n    999.4536m      0.           1.0000   
   10.39000n    999.4536m      0.           1.0000   
   10.40000n    999.4536m      0.           1.0000   
   10.41000n    999.4536m      0.           1.0000   
   10.42000n    999.4536m      0.           1.0000   
   10.43000n    999.4536m      0.           1.0000   
   10.44000n    999.4537m      0.           1.0000   
   10.45000n    999.4537m      0.           1.0000   
   10.46000n    999.4537m      0.           1.0000   
   10.47000n    999.4537m      0.           1.0000   
   10.48000n    999.4537m      0.           1.0000   
   10.49000n    999.4537m      0.           1.0000   
   10.50000n    999.4537m      0.           1.0000   
   10.51000n    999.4538m      0.           1.0000   
   10.52000n    999.4538m      0.           1.0000   
   10.53000n    999.4538m      0.           1.0000   
   10.54000n    999.4538m      0.           1.0000   
   10.55000n    999.4538m      0.           1.0000   
   10.56000n    999.4538m      0.           1.0000   
   10.57000n    999.4538m      0.           1.0000   
   10.58000n    999.4539m      0.           1.0000   
   10.59000n    999.4539m      0.           1.0000   
   10.60000n    999.4539m      0.           1.0000   
   10.61000n    999.4539m      0.           1.0000   
   10.62000n    999.4539m      0.           1.0000   
   10.63000n    999.4539m      0.           1.0000   
   10.64000n    999.4539m      0.           1.0000   
   10.65000n    999.4540m      0.           1.0000   
   10.66000n    999.4540m      0.           1.0000   
   10.67000n    999.4540m      0.           1.0000   
   10.68000n    999.4540m      0.           1.0000   
   10.69000n    999.4540m      0.           1.0000   
   10.70000n    999.4540m      0.           1.0000   
   10.71000n    999.4540m      0.           1.0000   
   10.72000n    999.4540m      0.           1.0000   
   10.73000n    999.4541m      0.           1.0000   
   10.74000n    999.4541m      0.           1.0000   
   10.75000n    999.4541m      0.           1.0000   
   10.76000n    999.4541m      0.           1.0000   
   10.77000n    999.4541m      0.           1.0000   
   10.78000n    999.4541m      0.           1.0000   
   10.79000n    999.4541m      0.           1.0000   
   10.80000n    999.4542m      0.           1.0000   
   10.81000n    999.4542m      0.           1.0000   
   10.82000n    999.4542m      0.           1.0000   
   10.83000n    999.4542m      0.           1.0000   
   10.84000n    999.4542m      0.           1.0000   
   10.85000n    999.4542m      0.           1.0000   
   10.86000n    999.4542m      0.           1.0000   
   10.87000n    999.4543m      0.           1.0000   
   10.88000n    999.4543m      0.           1.0000   
   10.89000n    999.4543m      0.           1.0000   
   10.90000n    999.4543m      0.           1.0000   
   10.91000n    999.4543m      0.           1.0000   
   10.92000n    999.4543m      0.           1.0000   
   10.93000n    999.4543m      0.           1.0000   
   10.94000n    999.4544m      0.           1.0000   
   10.95000n    999.4544m      0.           1.0000   
   10.96000n    999.4544m      0.           1.0000   
   10.97000n    999.4544m      0.           1.0000   
   10.98000n    999.4544m      0.           1.0000   
   10.99000n    999.4544m      0.           1.0000   
   11.00000n    999.4544m      0.           1.0000   
   11.01000n    999.4544m      0.           1.0000   
   11.02000n    999.4545m      0.           1.0000   
   11.03000n    999.4545m      0.           1.0000   
   11.04000n    999.4545m      0.           1.0000   
   11.05000n    999.4545m      0.           1.0000   
   11.06000n    999.4545m      0.           1.0000   
   11.07000n    999.4545m      0.           1.0000   
   11.08000n    999.4545m      0.           1.0000   
   11.09000n    999.4546m      0.           1.0000   
   11.10000n    999.4546m      0.           1.0000   
   11.11000n    999.4546m      0.           1.0000   
   11.12000n    999.4546m      0.           1.0000   
   11.13000n    999.4546m      0.           1.0000   
   11.14000n    999.4546m      0.           1.0000   
   11.15000n    999.4546m      0.           1.0000   
   11.16000n    999.4547m      0.           1.0000   
   11.17000n    999.4547m      0.           1.0000   
   11.18000n    999.4547m      0.           1.0000   
   11.19000n    999.4547m      0.           1.0000   
   11.20000n    999.4547m      0.           1.0000   
   11.21000n    999.4547m      0.           1.0000   
   11.22000n    999.4547m      0.           1.0000   
   11.23000n    999.4548m      0.           1.0000   
   11.24000n    999.4548m      0.           1.0000   
   11.25000n    999.4548m      0.           1.0000   
   11.26000n    999.4548m      0.           1.0000   
   11.27000n    999.4548m      0.           1.0000   
   11.28000n    999.4548m      0.           1.0000   
   11.29000n    999.4548m      0.           1.0000   
   11.30000n    999.4548m      0.           1.0000   
   11.31000n    999.4549m      0.           1.0000   
   11.32000n    999.4549m      0.           1.0000   
   11.33000n    999.4549m      0.           1.0000   
   11.34000n    999.4549m      0.           1.0000   
   11.35000n    999.4549m      0.           1.0000   
   11.36000n    999.4549m      0.           1.0000   
   11.37000n    999.4549m      0.           1.0000   
   11.38000n    999.4550m      0.           1.0000   
   11.39000n    999.4550m      0.           1.0000   
   11.40000n    999.4550m      0.           1.0000   
   11.41000n    999.4550m      0.           1.0000   
   11.42000n    999.4550m      0.           1.0000   
   11.43000n    999.4550m      0.           1.0000   
   11.44000n    999.4550m      0.           1.0000   
   11.45000n    999.4551m      0.           1.0000   
   11.46000n    999.4551m      0.           1.0000   
   11.47000n    999.4551m      0.           1.0000   
   11.48000n    999.4551m      0.           1.0000   
   11.49000n    999.4551m      0.           1.0000   
   11.50000n    999.4551m      0.           1.0000   
   11.51000n    999.4551m      0.           1.0000   
   11.52000n    999.4552m      0.           1.0000   
   11.53000n    999.4552m      0.           1.0000   
   11.54000n    999.4552m      0.           1.0000   
   11.55000n    999.4552m      0.           1.0000   
   11.56000n    999.4552m      0.           1.0000   
   11.57000n    999.4552m      0.           1.0000   
   11.58000n    999.4552m      0.           1.0000   
   11.59000n    999.4552m      0.           1.0000   
   11.60000n    999.4553m      0.           1.0000   
   11.61000n    999.4553m      0.           1.0000   
   11.62000n    999.4553m      0.           1.0000   
   11.63000n    999.4553m      0.           1.0000   
   11.64000n    999.4553m      0.           1.0000   
   11.65000n    999.4553m      0.           1.0000   
   11.66000n    999.4553m      0.           1.0000   
   11.67000n    999.4554m      0.           1.0000   
   11.68000n    999.4554m      0.           1.0000   
   11.69000n    999.4554m      0.           1.0000   
   11.70000n    999.4554m      0.           1.0000   
   11.71000n    999.4554m      0.           1.0000   
   11.72000n    999.4554m      0.           1.0000   
   11.73000n    999.4554m      0.           1.0000   
   11.74000n    999.4555m      0.           1.0000   
   11.75000n    999.4555m      0.           1.0000   
   11.76000n    999.4555m      0.           1.0000   
   11.77000n    999.4555m      0.           1.0000   
   11.78000n    999.4555m      0.           1.0000   
   11.79000n    999.4555m      0.           1.0000   
   11.80000n    999.4555m      0.           1.0000   
   11.81000n    999.4556m      0.           1.0000   
   11.82000n    999.4556m      0.           1.0000   
   11.83000n    999.4556m      0.           1.0000   
   11.84000n    999.4556m      0.           1.0000   
   11.85000n    999.4556m      0.           1.0000   
   11.86000n    999.4556m      0.           1.0000   
   11.87000n    999.4556m      0.           1.0000   
   11.88000n    999.4556m      0.           1.0000   
   11.89000n    999.4557m      0.           1.0000   
   11.90000n    999.4557m      0.           1.0000   
   11.91000n    999.4557m      0.           1.0000   
   11.92000n    999.4557m      0.           1.0000   
   11.93000n    999.4557m      0.           1.0000   
   11.94000n    999.4557m      0.           1.0000   
[...]
  166.63000n    999.4479m      0.           1.0000   
  166.64000n    999.4479m      0.           1.0000   
  166.65000n    999.4479m      0.           1.0000   
  166.66000n    999.4479m      0.           1.0000   
  166.67000n    999.4479m      0.           1.0000   
  166.68000n    999.4479m      0.           1.0000   
  166.69000n    999.4479m      0.           1.0000   
  166.70000n    999.4479m      0.           1.0000   
  166.71000n    999.4479m      0.           1.0000   
  166.72000n    999.4479m      0.           1.0000   
  166.73000n    999.4479m      0.           1.0000   
  166.74000n    999.4479m      0.           1.0000   
  166.75000n    999.4479m      0.           1.0000   
  166.76000n    999.4479m      0.           1.0000   
  166.77000n    999.4479m      0.           1.0000   
  166.78000n    999.4479m      0.           1.0000   
  166.79000n    999.4479m      0.           1.0000   
  166.80000n    999.4479m      0.           1.0000   
  166.81000n    999.4479m      0.           1.0000   
  166.82000n    999.4479m      0.           1.0000   
  166.83000n    999.4479m      0.           1.0000   
  166.84000n    999.4479m      0.           1.0000   
  166.85000n    999.4479m      0.           1.0000   
  166.86000n    999.4479m      0.           1.0000   
  166.87000n    999.4479m      0.           1.0000   
  166.88000n    999.4479m      0.           1.0000   
  166.89000n    999.4479m      0.           1.0000   
  166.90000n    999.4479m      0.           1.0000   
  166.91000n    999.4479m      0.           1.0000   
  166.92000n    999.4479m      0.           1.0000   
  166.93000n    999.4479m      0.           1.0000   
  166.94000n    999.4479m      0.           1.0000   
  166.95000n    999.4479m      0.           1.0000   
  166.96000n    999.4479m      0.           1.0000   
  166.97000n    999.4479m      0.           1.0000   
  166.98000n    999.4479m      0.           1.0000   
  166.99000n    999.4479m      0.           1.0000   
  167.00000n    999.4479m      0.           1.0000   
  167.01000n    999.4479m      0.           1.0000   
  167.02000n    999.4479m      0.           1.0000   
  167.03000n    999.4479m      0.           1.0000   
  167.04000n    999.4479m      0.           1.0000   
  167.05000n    999.4479m      0.           1.0000   
  167.06000n    999.4479m      0.           1.0000   
  167.07000n    999.4479m      0.           1.0000   
  167.08000n    999.4479m      0.           1.0000   
  167.09000n    999.4479m      0.           1.0000   
  167.10000n    999.4479m      0.           1.0000   
  167.11000n    999.4479m      0.           1.0000   
  167.12000n    999.4479m      0.           1.0000   
  167.13000n    999.4479m      0.           1.0000   
  167.14000n    999.4479m      0.           1.0000   
  167.15000n    999.4479m      0.           1.0000   
  167.16000n    999.4479m      0.           1.0000   
  167.17000n    999.4479m      0.           1.0000   
  167.18000n    999.4479m      0.           1.0000   
  167.19000n    999.4479m      0.           1.0000   
  167.20000n    999.4479m      0.           1.0000   
  167.21000n    999.4479m      0.           1.0000   
  167.22000n    999.4479m      0.           1.0000   
  167.23000n    999.4479m      0.           1.0000   
  167.24000n    999.4479m      0.           1.0000   
  167.25000n    999.4479m      0.           1.0000   
  167.26000n    999.4479m      0.           1.0000   
  167.27000n    999.4479m      0.           1.0000   
  167.28000n    999.4479m      0.           1.0000   
  167.29000n    999.4479m      0.           1.0000   
  167.30000n    999.4479m      0.           1.0000   
  167.31000n    999.4479m      0.           1.0000   
  167.32000n    999.4479m      0.           1.0000   
  167.33000n    999.4479m      0.           1.0000   
  167.34000n    999.4479m      0.           1.0000   
  167.35000n    999.4479m      0.           1.0000   
  167.36000n    999.4479m      0.           1.0000   
  167.37000n    999.4479m      0.           1.0000   
  167.38000n    999.4479m      0.           1.0000   
  167.39000n    999.4479m      0.           1.0000   
  167.40000n    999.4479m      0.           1.0000   
  167.41000n    999.4479m      0.           1.0000   
  167.42000n    999.4479m      0.           1.0000   
  167.43000n    999.4479m      0.           1.0000   
  167.44000n    999.4479m      0.           1.0000   
  167.45000n    999.4479m      0.           1.0000   
  167.46000n    999.4479m      0.           1.0000   
  167.47000n    999.4479m      0.           1.0000   
  167.48000n    999.4479m      0.           1.0000   
  167.49000n    999.4479m      0.           1.0000   
  167.50000n    999.4479m      0.           1.0000   
  167.51000n    999.4479m      0.           1.0000   
  167.52000n    999.4479m      0.           1.0000   
  167.53000n    999.4479m      0.           1.0000   
  167.54000n    999.4479m      0.           1.0000   
  167.55000n    999.4479m      0.           1.0000   
  167.56000n    999.4479m      0.           1.0000   
  167.57000n    999.4479m      0.           1.0000   
  167.58000n    999.4479m      0.           1.0000   
  167.59000n    999.4479m      0.           1.0000   
  167.60000n    999.4479m      0.           1.0000   
  167.61000n    999.4479m      0.           1.0000   
  167.62000n    999.4479m      0.           1.0000   
  167.63000n    999.4479m      0.           1.0000   
  167.64000n    999.4479m      0.           1.0000   
  167.65000n    999.4479m      0.           1.0000   
  167.66000n    999.4479m      0.           1.0000   
  167.67000n    999.4479m      0.           1.0000   
  167.68000n    999.4479m      0.           1.0000   
  167.69000n    999.4479m      0.           1.0000   
  167.70000n    999.4479m      0.           1.0000   
  167.71000n    999.4479m      0.           1.0000   
  167.72000n    999.4479m      0.           1.0000   
  167.73000n    999.4479m      0.           1.0000   
  167.74000n    999.4479m      0.           1.0000   
  167.75000n    999.4479m      0.           1.0000   
  167.76000n    999.4479m      0.           1.0000   
  167.77000n    999.4479m      0.           1.0000   
  167.78000n    999.4479m      0.           1.0000   
  167.79000n    999.4479m      0.           1.0000   
  167.80000n    999.4479m      0.           1.0000   
  167.81000n    999.4479m      0.           1.0000   
  167.82000n    999.4479m      0.           1.0000   
  167.83000n    999.4479m      0.           1.0000   
  167.84000n    999.4479m      0.           1.0000   
  167.85000n    999.4479m      0.           1.0000   
  167.86000n    999.4479m      0.           1.0000   
  167.87000n    999.4479m      0.           1.0000   
  167.88000n    999.4479m      0.           1.0000   
  167.89000n    999.4479m      0.           1.0000   
  167.90000n    999.4479m      0.           1.0000   
  167.91000n    999.4479m      0.           1.0000   
  167.92000n    999.4479m      0.           1.0000   
  167.93000n    999.4479m      0.           1.0000   
  167.94000n    999.4479m      0.           1.0000   
  167.95000n    999.4479m      0.           1.0000   
  167.96000n    999.4479m      0.           1.0000   
  167.97000n    999.4479m      0.           1.0000   
  167.98000n    999.4479m      0.           1.0000   
  167.99000n    999.4479m      0.           1.0000   
  168.00000n    999.4479m      0.           1.0000   
  168.01000n    999.4479m      0.           1.0000   
  168.02000n    999.4479m      0.           1.0000   
  168.03000n    999.4479m      0.           1.0000   
  168.04000n    999.4479m      0.           1.0000   
  168.05000n    999.4479m      0.           1.0000   
  168.06000n    999.4479m      0.           1.0000   
  168.07000n    999.4479m      0.           1.0000   
  168.08000n    999.4479m      0.           1.0000   
  168.09000n    999.4479m      0.           1.0000   
  168.10000n    999.4479m      0.           1.0000   
  168.11000n    999.4479m      0.           1.0000   
  168.12000n    999.4479m      0.           1.0000   
  168.13000n    999.4479m      0.           1.0000   
  168.14000n    999.4479m      0.           1.0000   
  168.15000n    999.4479m      0.           1.0000   
  168.16000n    999.4479m      0.           1.0000   
  168.17000n    999.4479m      0.           1.0000   
  168.18000n    999.4479m      0.           1.0000   
  168.19000n    999.4479m      0.           1.0000   
  168.20000n    999.4479m      0.           1.0000   
  168.21000n    999.4479m      0.           1.0000   
  168.22000n    999.4479m      0.           1.0000   
  168.23000n    999.4479m      0.           1.0000   
  168.24000n    999.4479m      0.           1.0000   
  168.25000n    999.4479m      0.           1.0000   
  168.26000n    999.4479m      0.           1.0000   
  168.27000n    999.4479m      0.           1.0000   
  168.28000n    999.4479m      0.           1.0000   
  168.29000n    999.4479m      0.           1.0000   
  168.30000n    999.4479m      0.           1.0000   
  168.31000n    999.4479m      0.           1.0000   
  168.32000n    999.4479m      0.           1.0000   
  168.33000n    999.4479m      0.           1.0000   
  168.34000n    999.4479m      0.           1.0000   
  168.35000n    999.4479m      0.           1.0000   
  168.36000n    999.4479m      0.           1.0000   
  168.37000n    999.4479m      0.           1.0000   
  168.38000n    999.4479m      0.           1.0000   
  168.39000n    999.4479m      0.           1.0000   
  168.40000n    999.4479m      0.           1.0000   
  168.41000n    999.4479m      0.           1.0000   
  168.42000n    999.4479m      0.           1.0000   
  168.43000n    999.4479m      0.           1.0000   
  168.44000n    999.4479m      0.           1.0000   
  168.45000n    999.4479m      0.           1.0000   
  168.46000n    999.4479m      0.           1.0000   
  168.47000n    999.4479m      0.           1.0000   
  168.48000n    999.4479m      0.           1.0000   
  168.49000n    999.4479m      0.           1.0000   
  168.50000n    999.4479m      0.           1.0000   
  168.51000n    999.4479m      0.           1.0000   
  168.52000n    999.4479m      0.           1.0000   
  168.53000n    999.4479m      0.           1.0000   
  168.54000n    999.4479m      0.           1.0000   
  168.55000n    999.4479m      0.           1.0000   
  168.56000n    999.4479m      0.           1.0000   
  168.57000n    999.4479m      0.           1.0000   
  168.58000n    999.4479m      0.           1.0000   
  168.59000n    999.4479m      0.           1.0000   
  168.60000n    999.4479m      0.           1.0000   
  168.61000n    999.4479m      0.           1.0000   
  168.62000n    999.4479m      0.           1.0000   
  168.63000n    999.4479m      0.           1.0000   
  168.64000n    999.4479m      0.           1.0000   
  168.65000n    999.4479m      0.           1.0000   
  168.66000n    999.4479m      0.           1.0000   
  168.67000n    999.4479m      0.           1.0000   
  168.68000n    999.4479m      0.           1.0000   
  168.69000n    999.4479m      0.           1.0000   
  168.70000n    999.4479m      0.           1.0000   
  168.71000n    999.4479m      0.           1.0000   
  168.72000n    999.4479m      0.           1.0000   
  168.73000n    999.4479m      0.           1.0000   
  168.74000n    999.4479m      0.           1.0000   
  168.75000n    999.4479m      0.           1.0000   
  168.76000n    999.4479m      0.           1.0000   
  168.77000n    999.4479m      0.           1.0000   
  168.78000n    999.4479m      0.           1.0000   
  168.79000n    999.4479m      0.           1.0000   
  168.80000n    999.4479m      0.           1.0000   
  168.81000n    999.4479m      0.           1.0000   
  168.82000n    999.4479m      0.           1.0000   
  168.83000n    999.4479m      0.           1.0000   
  168.84000n    999.4479m      0.           1.0000   
  168.85000n    999.4479m      0.           1.0000   
  168.86000n    999.4479m      0.           1.0000   
  168.87000n    999.4479m      0.           1.0000   
  168.88000n    999.4479m      0.           1.0000   
  168.89000n    999.4479m      0.           1.0000   
  168.90000n    999.4479m      0.           1.0000   
  168.91000n    999.4479m      0.           1.0000   
  168.92000n    999.4479m      0.           1.0000   
  168.93000n    999.4479m      0.           1.0000   
  168.94000n    999.4479m      0.           1.0000   
  168.95000n    999.4479m      0.           1.0000   
  168.96000n    999.4479m      0.           1.0000   
  168.97000n    999.4479m      0.           1.0000   
  168.98000n    999.4479m      0.           1.0000   
  168.99000n    999.4479m      0.           1.0000   
  169.00000n    999.4479m      0.           1.0000   
  169.01000n    999.4479m      0.           1.0000   
  169.02000n    999.4479m      0.           1.0000   
  169.03000n    999.4479m      0.           1.0000   
  169.04000n    999.4479m      0.           1.0000   
  169.05000n    999.4479m      0.           1.0000   
  169.06000n    999.4479m      0.           1.0000   
  169.07000n    999.4479m      0.           1.0000   
  169.08000n    999.4479m      0.           1.0000   
  169.09000n    999.4479m      0.           1.0000   
  169.10000n    999.4479m      0.           1.0000   
  169.11000n    999.4479m      0.           1.0000   
  169.12000n    999.4479m      0.           1.0000   
  169.13000n    999.4479m      0.           1.0000   
  169.14000n    999.4479m      0.           1.0000   
  169.15000n    999.4479m      0.           1.0000   
  169.16000n    999.4479m      0.           1.0000   
  169.17000n    999.4479m      0.           1.0000   
  169.18000n    999.4479m      0.           1.0000   
  169.19000n    999.4479m      0.           1.0000   
  169.20000n    999.4479m      0.           1.0000   
  169.21000n    999.4479m      0.           1.0000   
  169.22000n    999.4479m      0.           1.0000   
  169.23000n    999.4479m      0.           1.0000   
  169.24000n    999.4479m      0.           1.0000   
  169.25000n    999.4479m      0.           1.0000   
  169.26000n    999.4479m      0.           1.0000   
  169.27000n    999.4479m      0.           1.0000   
  169.28000n    999.4479m      0.           1.0000   
  169.29000n    999.4479m      0.           1.0000   
  169.30000n    999.4479m      0.           1.0000   
  169.31000n    999.4479m      0.           1.0000   
  169.32000n    999.4479m      0.           1.0000   
  169.33000n    999.4479m      0.           1.0000   
  169.34000n    999.4479m      0.           1.0000   
  169.35000n    999.4479m      0.           1.0000   
  169.36000n    999.4479m      0.           1.0000   
  169.37000n    999.4479m      0.           1.0000   
  169.38000n    999.4479m      0.           1.0000   
  169.39000n    999.4479m      0.           1.0000   
  169.40000n    999.4479m      0.           1.0000   
  169.41000n    999.4479m      0.           1.0000   
  169.42000n    999.4479m      0.           1.0000   
  169.43000n    999.4479m      0.           1.0000   
  169.44000n    999.4479m      0.           1.0000   
  169.45000n    999.4479m      0.           1.0000   
  169.46000n    999.4479m      0.           1.0000   
  169.47000n    999.4479m      0.           1.0000   
  169.48000n    999.4479m      0.           1.0000   
  169.49000n    999.4479m      0.           1.0000   
  169.50000n    999.4479m      0.           1.0000   
  169.51000n    999.4479m      0.           1.0000   
  169.52000n    999.4479m      0.           1.0000   
  169.53000n    999.4479m      0.           1.0000   
  169.54000n    999.4479m      0.           1.0000   
  169.55000n    999.4479m      0.           1.0000   
  169.56000n    999.4479m      0.           1.0000   
  169.57000n    999.4479m      0.           1.0000   
  169.58000n    999.4479m      0.           1.0000   
  169.59000n    999.4479m      0.           1.0000   
  169.60000n    999.4479m      0.           1.0000   
  169.61000n    999.4479m      0.           1.0000   
  169.62000n    999.4479m      0.           1.0000   
  169.63000n    999.4479m      0.           1.0000   
  169.64000n    999.4479m      0.           1.0000   
  169.65000n    999.4479m      0.           1.0000   
  169.66000n    999.4479m      0.           1.0000   
  169.67000n    999.4479m      0.           1.0000   
  169.68000n    999.4479m      0.           1.0000   
  169.69000n    999.4479m      0.           1.0000   
  169.70000n    999.4479m      0.           1.0000   
  169.71000n    999.4479m      0.           1.0000   
  169.72000n    999.4479m      0.           1.0000   
  169.73000n    999.4479m      0.           1.0000   
  169.74000n    999.4479m      0.           1.0000   
  169.75000n    999.4479m      0.           1.0000   
  169.76000n    999.4479m      0.           1.0000   
  169.77000n    999.4479m      0.           1.0000   
  169.78000n    999.4479m      0.           1.0000   
  169.79000n    999.4479m      0.           1.0000   
  169.80000n    999.4479m      0.           1.0000   
  169.81000n    999.4479m      0.           1.0000   
  169.82000n    999.4479m      0.           1.0000   
  169.83000n    999.4479m      0.           1.0000   
  169.84000n    999.4479m      0.           1.0000   
  169.85000n    999.4479m      0.           1.0000   
  169.86000n    999.4479m      0.           1.0000   
  169.87000n    999.4479m      0.           1.0000   
  169.88000n    999.4479m      0.           1.0000   
  169.89000n    999.4479m      0.           1.0000   
  169.90000n    999.4479m      0.           1.0000   
  169.91000n    999.4479m      0.           1.0000   
  169.92000n    999.4479m      0.           1.0000   
  169.93000n    999.4479m      0.           1.0000   
  169.94000n    999.4479m      0.           1.0000   
  169.95000n    999.4479m      0.           1.0000   
  169.96000n    999.4479m      0.           1.0000   
  169.97000n    999.4479m      0.           1.0000   
  169.98000n    999.4479m      0.           1.0000   
  169.99000n    999.4479m      0.           1.0000   
  170.00000n    999.4479m      0.           1.0000   
y

          ***** job concluded
1****** HSPICE -- D-2010.03-SP1 32-BIT (May 26 2010) winnt ******               
 ******  
 first line of the netlist must be blank.

  ******  job statistics summary tnom=  25.000 temp=  25.000 *****

  ******  HSPICE Threads Information  ******

  Command Line Threads Count                  :     1
  Available CPU Count                         :     4
  Actual Model Evaluation(Load) Threads Count :     1
  Actual Solver Threads Count                 :     1


  ******  Circuit Statistics  ******
  # nodes       =      30 # elements   =       9
  # resistors   =       0 # capacitors =       0 # inductors   =       0
  # mutual_inds =       0 # vccs       =       0 # vcvs        =       0
  # cccs        =       0 # ccvs       =       0 # volt_srcs   =       3
  # curr_srcs   =       0 # diodes     =       0 # bjts        =       0
  # jfets       =       0 # mosfets    =       6 # U elements  =       0
  # T elements  =       0 # W elements =       0 # B elements  =       0
  # S elements  =       0 # P elements =       0 # va device   =       0


  ******  Runtime Statistics (seconds)  ******

  analysis           time    # points   tot. iter  conv.iter
  op point           0.01           1           5
  transient          0.12       17001        2160         808 rev=        60
  readin             0.05
  errchk             0.01
  setup              0.01
  output             0.04


           total memory used          181  kbytes
           total cpu time            0.26 seconds
           total elapsed time        0.34 seconds
           job started at     20:11:20 12/31/2014
           job ended   at     20:11:20 12/31/2014


  lic: Release hspice token(s) 
