$DATA1 SOURCE='HSPICE' VERSION='D-2010.03-SP1 32-BIT'
.TITLE 'first line of the netlist must be blank.'
 pow              temper           alter#            
  9.421e-11         25.0000        1                 
