 ****** HSPICE -- D-2010.03-SP1 32-BIT (May 26 2010) winnt ******               
  Copyright (C) 2010 Synopsys, Inc. All Rights Reserved.                        
  Unpublished-rights reserved under US copyright laws.
  This program is protected by law and is subject to the 
  terms and conditions of the license agreement from Synopsys.
  Use of this program is your acceptance to be bound by the 
  license agreement. HSPICE is the trademark of Synopsys, Inc.
  Input File: d:\digital electronic\projects\ca_2\full_adder_tpd_temp_100\tpd_te
  lic:  
  lic: FLEXlm: v8.5b 
  lic: USER:   HP                   HOSTNAME: ProBook 
  lic: HOSTID: "00090faa0001 56db30007c95 16db30007c95 a4db30007c95 a45d36cb5ab9
  
  lic: Using FLEXlm license file: 
  lic: 27000@elena 
  lic: Checkout 1 hspice 
  lic: License/Maintenance for hspice will expire on 31-dec-2020/2007.9 
  lic: NODE LOCKED license on hostid "00090faa0001 56db30007c95 16db30007c95 a4d
 b
  lic:   
 Init: read install configuration file: C:\synopsys\Hspice_D-2010.03-SP1\meta.cfg
1****** HSPICE -- D-2010.03-SP1 32-BIT (May 26 2010) winnt ******               
 ******  
 first line of the netlist must be blank.

  ******  circuit name directory
 circuit number to circuit name directory
   number circuitname                     definition         multiplier
        0 main circuit
        1 x_cout.                         inverter           1.00 
        2 x_sum.                          inverter           1.00 
  **info** (d:\digital electronic\projects\ca_2\full_adder_tpd_temp_100\tpd_temp_100.sp:79) DC voltage reset to initial transient source value              in source        0:vina                new dc=  0.0000D+00
 ***************************************************************************
 ***        model parameters  model name:   0:pmos.6   model type:pmos   ***
 ***************************************************************************

   *** general parameters ***
    deriv=   0.           

   ***  level 49  model parameters  ***

       hspver=    2006.03               level=         49         
      version=        3.1            paramchk=          0         
       apwarn=          1                lite=          0         
       vgslim=          0             binUnit=          2         
       capMod=          0               xpart=          1         
       mobMod=          1              nqsMod=          0         
       stiMod=          0                 elm=          5         
     sfvtflag=          0                 tox=  4.08e-009 meter   
           xj=   1.7e-007 meter       binflag=          0         
         lmin=   1.8e-007 meter          lmax=     5e-007 meter   
         wmin=   1.3e-006 meter          wmax=  1.01e-005 meter   
         lref=          0 meter          wref=          0 meter   
         lint=   1.5e-008 meter          wint=   1.5e-008 meter   
        lmult=          1               wmult=          1         
           ll=          0                 lln=          1         
           lw=          0                 lwn=          1         
          lwl=          0                  wl=          0         
          wln=          1                  ww=          0         
          wwn=          1                 wwl=          0         
          dwg=          0 m/V             dwb=          0 m/V^1/2 
           xl=    -2e-008                  xw=          0         
           a0=    1.27343                 ags=       0.02 V^-1    
           b0=          0 meter            b1=          0 meter   
         keta=  0.0150006 V^-1           voff=  -0.130818 V       
        ngate=          0 cm^-3           vbx=          0 V       
          vbm=         -3 V                xt=  1.55e-007 meter   
         vth0=  -0.449372 V               nch=   3.9e+017 cm^-3   
         nsub=     6e+016 cm^-3           nlx=          0 meter   
       gamma1=          0 V^-1/2       gamma2=          0 V^-1/2  
           k1=   0.517892 V^1/2            k2=  0.0428098         
           k3=          0                 k3b=          0 V^-1    
           w0=          0 meter          dvt0=          0         
         dvt1=          0                dvt2=          0 V^-1    
        dvt0w=          0 meter^-1      dvt1w=          0 meter^-1
        dvt2w=          0 V^-1           dsub=          0         
         eta0=-0.00046875                etab= 0.00113675 V^-1    
           u0=  0.0098319 m^2/V/sec         ua=9.4993e-010 m/V     
           ub=4.95858e-019 (m/V)^2          uc=-1.5879e-010 V^-1    
         vsat=     130813 m/sec            a1=          0 v^-1    
           a2=        0.4               delta=       0.01 V       
         rdsw=        530 ohm-um         prwg=          0 V^-1    
         prwb=          0 V^-1/2           wr=          1         
         pclm=    0.91154             pdiblc1=     1e-006         
      pdiblc2= 0.00796875             pdiblcb=       0.01 V^-1    
       pscbe1=   3.5e+008 V/m          pscbe2=     5e-007 V/m     
        drout=          0                pvag=          0         
      nfactor=          1                cdsc=          0 f/m^2   
        cdscb=          0 f/V/m^2       cdscd=          0 f/V/m^2 
          cit=-6.28086e-005 f/m^2        alpha0=8.93496e-007 m/V     
        beta0=    22.6783 V               dlc=     2e-009 meter   
          dwc=   1.5e-008 meter           clc=     1e-007 meter   
          cle=        0.6                cgso=  3.28e-010 f/m     
         cgdo=  3.28e-010 f/m            cgbo=2.53907e-010 f/m     
         cgsl=          0 f/m            cgdl=          0 f/m     
       ckappa=        0.6                  cf=          0 f/m     
      vfbflag=          1               vfbcv=           Vfb      
         tnom=     298.15 K               kt1=   -0.23689 V       
         kt1l=          0                 kt2=   -0.02568         
          ute=  -0.721369                 ua1= 1.224e-009 m/V     
          ub1=-1.35253e-018 (m/V)^2         uc1=7.19149e-011 m/V^2   
           at=      10000 m/s             prt=          0         
          using Hspice noise model           nlev=          3         
           af=      1.252                  kf= 9.267e-024         
       gdsnoi=-1.23457e-029         
          using Berkeley diodes          using ACM 
          acm=        12                 hdif=    2e-007 meter    
         ldif=    9e-008 meter             js= 4.92e-006 amp/m^2  
          jsw=    9e-010 amp/m            xti=         3          
           nj=         1                   cj=  0.001121 f/m^2    
           mj=    0.4476                   pb=  0.895226 V        
         cjsw=2.481e-010 f/m             mjsw=  0.368362          
          php (not used)                  pbsw=  0.895226 V        
       cjgate (not used)                 cjswg=4.221e-010 f/m      
        mjswg=  0.368362                pbswg=  0.895226 V        
          la0=3.36969e-009               lketa=-5.83136e-010         
        lvoff=1.55427e-010               lvth0=-8.06576e-009         
          lk1=1.88712e-008                 lk2=-6.75856e-009         
        leta0=2.55938e-010               letab=-5.56539e-010         
          lu0=-1.29165e-010                 lua=-1.785e-016         
          lub=1.37311e-025                 luc=1.95859e-017         
        lvsat=-0.000365624               lpclm=3.9807e-008         
     lpdiblc2=9.14062e-010                lcit=1.18189e-010         
         lkt1=-2.46349e-009                lkt2=-7.62232e-011         
         lute=5.38701e-010                lub1=2.54921e-026         
         luc1=-7.86928e-018                 wa0=-5.00174e-007         
        wketa=8.66115e-009               wvoff=5.51816e-009         
        wvth0=1.06796e-008                 wk1=1.44513e-007         
          wk2=-5.28371e-008               wetab=-5.90396e-010         
          wu0=-2.92769e-009                 wua=-7.67988e-016         
          wub=4.3796e-025                 wuc=2.92279e-017         
        wpclm=-1.31009e-008                wcit=2.21978e-010         
         wkt1=2.01412e-008                wkt2=8.08905e-009         
         wute=1.23065e-007                wub1=-2.57544e-025         
         wuc1=-4.96378e-017                 pa0=1.27884e-013         
        pketa=-2.4688e-015               pvoff=-1.90571e-015         
        pvth0=-1.7426e-015                 pk1=-2.05709e-014         
          pk2=8.79696e-015               petab=2.65679e-016         
          pu0=3.01257e-016                 pua=1.84541e-022         
          pub=-1.52856e-031                 puc=-1.08196e-023         
        ppclm=5.8954e-015                pcit=-8.55422e-017         
         pkt1=-2.00901e-015                pkt2=-1.55865e-015         
         pute=1.05946e-014                pub1=3.33784e-032         
         puc1=1.01945e-023         
 ***************************************************************************
 ***        model parameters  model name:   0:nmos.12  model type:nmos   ***
 ***************************************************************************

   *** general parameters ***
    deriv=   0.           

   ***  level 49  model parameters  ***

       hspver=    2006.03               level=         49         
      version=        3.1            paramchk=          0         
       apwarn=          1                lite=          0         
       vgslim=          0             binUnit=          2         
       capMod=          0               xpart=          1         
       mobMod=          1              nqsMod=          0         
       stiMod=          0                 elm=          5         
     sfvtflag=          0                 tox=  4.08e-009 meter   
           xj=   1.6e-007 meter       binflag=          0         
         lmin=   1.8e-007 meter          lmax=     5e-007 meter   
         wmin=   2.2e-007 meter          wmax=     6e-007 meter   
         lref=          0 meter          wref=          0 meter   
         lint=     1e-008 meter          wint=     1e-008 meter   
        lmult=          1               wmult=          1         
           ll=          0                 lln=          1         
           lw=          0                 lwn=          1         
          lwl=          0                  wl=          0         
          wln=          1                  ww=          0         
          wwn=          1                 wwl=          0         
          dwg=          0 m/V             dwb=          0 m/V^1/2 
           xl=    -2e-008                  xw=          0         
           a0=   0.309139                 ags=  0.0533449 V^-1    
           b0=          0 meter            b1=          0 meter   
         keta= -0.0298329 V^-1           voff=  -0.118294 V       
        ngate=          0 cm^-3           vbx=          0 V       
          vbm=         -3 V                xt=  1.55e-007 meter   
         vth0=   0.473666 V               nch=   3.9e+017 cm^-3   
         nsub=     6e+016 cm^-3           nlx=          0 meter   
       gamma1=          0 V^-1/2       gamma2=          0 V^-1/2  
           k1=   0.491632 V^1/2            k2=  0.0241211         
           k3=          0                 k3b=          0 V^-1    
           w0=          0 meter          dvt0=          0         
         dvt1=          0                dvt2=          0 V^-1    
        dvt0w=          0 meter^-1      dvt1w=          0 meter^-1
        dvt2w=          0 V^-1           dsub=          0         
         eta0=-0.000262195                etab= 0.00134878 V^-1    
           u0=  0.0372746 m^2/V/sec         ua=-6.55196e-010 m/V     
           ub=2.11511e-018 (m/V)^2          uc=1.21054e-010 V^-1    
         vsat=    85478.7 m/sec            a1=          0 v^-1    
           a2=       0.99               delta=       0.01 V       
         rdsw=        170 ohm-um         prwg=          0 V^-1    
         prwb=          0 V^-1/2           wr=          1         
         pclm=    1.15192             pdiblc1=     1e-006         
      pdiblc2=-0.00702563             pdiblcb=       0.01 V^-1    
       pscbe1=     4e+008 V/m          pscbe2=     1e-006 V/m     
        drout=          0                pvag=          0         
      nfactor=          1                cdsc=          0 f/m^2   
        cdscb=          0 f/V/m^2       cdscd=          0 f/V/m^2 
          cit=0.000291019 f/m^2        alpha0=6.27411e-008 m/V     
        beta0=    11.5926 V               dlc=     3e-009 meter   
          dwc=     1e-008 meter           clc=     1e-007 meter   
          cle=        0.6                cgso= 3.665e-010 f/m     
         cgdo= 3.665e-010 f/m            cgbo=1.69271e-010 f/m     
         cgsl=          0 f/m            cgdl=          0 f/m     
       ckappa=        0.6                  cf=          0 f/m     
      vfbflag=          1               vfbcv=           Vfb      
         tnom=     298.15 K               kt1=  -0.195646 V       
         kt1l=          0                 kt2=  -0.039081         
          ute=   -1.94466                 ua1= 1.224e-009 m/V     
          ub1=-3.08156e-018 (m/V)^2         uc1=-2.39274e-010 m/V^2   
           at=      20000 m/s             prt=          0         
          using Hspice noise model           nlev=          3         
           af=     0.8256                  kf= 9.326e-025         
       gdsnoi=-1.23457e-029         
          using Berkeley diodes          using ACM 
          acm=        12                 hdif=    2e-007 meter    
         ldif=    9e-008 meter             js= 8.38e-006 amp/m^2  
          jsw=  1.6e-011 amp/m            xti=         3          
           nj=         1                   cj=0.00100027 f/m^2    
           mj=  0.359526                   pb=  0.688268 V        
         cjsw=2.04055e-010 f/m             mjsw=  0.200388          
          php (not used)                  pbsw=  0.688268 V        
       cjgate (not used)                 cjswg=3.34055e-010 f/m      
        mjswg=   0.43879                pbswg=  0.688268 V        
          la0=1.06621e-007                lags=-1.53387e-008         
        lketa=4.61416e-010               lvoff=-3.96108e-009         
        lvth0=5.11682e-009                 lk1=3.30818e-008         
          lk2=-1.52713e-008               leta0=1.6661e-010         
        letab=-6.66439e-010                 lu0=1.59926e-009         
          lua=2.34123e-017                 lub=-8.56068e-026         
          luc=-1.54502e-017               lvsat=-0.00020462         
        lpclm=7.12344e-008            lpdiblc2=5.54738e-009         
         lcit=9.61312e-011                lkt1=-2.85002e-011         
         lkt2=1.8665e-009                lute=4.8145e-008         
         lub1=3.21842e-025                luc1= 5.554e-017         
          wa0=2.62937e-007                wags=-1.00035e-008         
        wketa=4.19031e-009               wvoff=-3.62118e-010         
        wvth0=-2.54604e-009                 wk1=-1.81486e-008         
          wk2=4.13368e-009                 wu0=1.17336e-009         
          wua=4.27813e-017                 wub=-1.03025e-025         
          wuc=-2.88731e-017               wvsat=0.000535754         
        wpclm=1.12421e-007            wpdiblc2=7.8584e-010         
         wcit=-2.50083e-012                wkt1=-1.85501e-008         
         wkt2=2.04501e-009                wute=1.32891e-008         
         wub1=1.45513e-025                wuc1=4.98122e-017         
          pa0=-8.2896e-014                pags=4.6016e-015         
        pketa=-1.78076e-016               pvoff=-4.51263e-016         
        pvth0=7.78622e-016                 pk1=4.16607e-015         
          pk2=-2.21999e-015                 pu0=-1.56466e-017         
          pua=-2.17339e-023                 pub=2.32296e-032         
          puc=3.11796e-024               pvsat=1.1309e-011         
        ppclm=-1.62572e-016            ppdiblc2=-1.03731e-016         
         pcit=1.1504e-018                pkt1=3.11964e-015         
         pkt2=-7.72415e-017                pute=-6.113e-015         
         pub1=-2.88913e-032                puc1=-1.05423e-023         
 ***************************************************************************
 ***        model parameters  model name:   0:pmos.12  model type:pmos   ***
 ***************************************************************************

   *** general parameters ***
    deriv=   0.           

   ***  level 49  model parameters  ***

       hspver=    2006.03               level=         49         
      version=        3.1            paramchk=          0         
       apwarn=          1                lite=          0         
       vgslim=          0             binUnit=          2         
       capMod=          0               xpart=          1         
       mobMod=          1              nqsMod=          0         
       stiMod=          0                 elm=          5         
     sfvtflag=          0                 tox=  4.08e-009 meter   
           xj=   1.7e-007 meter       binflag=          0         
         lmin=   1.8e-007 meter          lmax=     5e-007 meter   
         wmin=   2.2e-007 meter          wmax=     6e-007 meter   
         lref=          0 meter          wref=          0 meter   
         lint=   1.5e-008 meter          wint=   1.5e-008 meter   
        lmult=          1               wmult=          1         
           ll=          0                 lln=          1         
           lw=          0                 lwn=          1         
          lwl=          0                  wl=          0         
          wln=          1                  ww=          0         
          wwn=          1                 wwl=          0         
          dwg=          0 m/V             dwb=          0 m/V^1/2 
           xl=    -2e-008                  xw=          0         
           a0=    1.42473                 ags=    0.03625 V^-1    
           b0=          0 meter            b1=          0 meter   
         keta=   0.031312 V^-1           voff=  -0.128164 V       
        ngate=          0 cm^-3           vbx=          0 V       
          vbm=         -3 V                xt=  1.55e-007 meter   
         vth0=  -0.463924 V               nch=   3.9e+017 cm^-3   
         nsub=     6e+016 cm^-3           nlx=          0 meter   
       gamma1=          0 V^-1/2       gamma2=          0 V^-1/2  
           k1=   0.466995 V^1/2            k2=  0.0588639         
           k3=          0                 k3b=          0 V^-1    
           w0=          0 meter          dvt0=          0         
         dvt1=          0                dvt2=          0 V^-1    
        dvt0w=          0 meter^-1      dvt1w=          0 meter^-1
        dvt2w=          0 V^-1           dsub=          0         
         eta0=-0.00046875                etab=0.000671875 V^-1    
           u0=  0.0106032 m^2/V/sec         ua=1.95012e-009 m/V     
           ub=-4.60397e-019 (m/V)^2          uc=-2.79142e-010 V^-1    
         vsat=     130813 m/sec            a1=          0 v^-1    
           a2=        0.4               delta=       0.01 V       
         rdsw=        530 ohm-um         prwg=          0 V^-1    
         prwb=          0 V^-1/2           wr=          1         
         pclm=   0.965731             pdiblc1=     1e-006         
      pdiblc2=  0.0059375             pdiblcb=       0.01 V^-1    
       pscbe1=   3.5e+008 V/m          pscbe2=     5e-007 V/m     
        drout=          0                pvag=          0         
      nfactor=          1                cdsc=          0 f/m^2   
        cdscb=          0 f/V/m^2       cdscd=          0 f/V/m^2 
          cit=8.53438e-005 f/m^2        alpha0=8.93496e-007 m/V     
        beta0=    22.6783 V               dlc=     2e-009 meter   
          dwc=   1.5e-008 meter           clc=     1e-007 meter   
          cle=        0.6                cgso=  3.28e-010 f/m     
         cgdo=  3.28e-010 f/m            cgbo=2.53907e-010 f/m     
         cgsl=          0 f/m            cgdl=          0 f/m     
       ckappa=        0.6                  cf=          0 f/m     
      vfbflag=          1               vfbcv=           Vfb      
         tnom=     298.15 K               kt1=  -0.213807 V       
         kt1l=          0                 kt2= -0.0350727         
          ute=  -0.599398                 ua1= 1.224e-009 m/V     
          ub1=-1.44385e-018 (m/V)^2         uc1=1.97007e-010 m/V^2   
           at=      10000 m/s             prt=          0         
          using Hspice noise model           nlev=          3         
           af=      1.252                  kf= 9.267e-024         
       gdsnoi=-1.23457e-029         
          using Berkeley diodes          using ACM 
          acm=        12                 hdif=    2e-007 meter    
         ldif=    9e-008 meter             js= 4.92e-006 amp/m^2  
          jsw=    9e-010 amp/m            xti=         3          
           nj=         1                   cj=  0.001121 f/m^2    
           mj=    0.4476                   pb=  0.895226 V        
         cjsw=2.481e-010 f/m             mjsw=  0.368362          
          php (not used)                  pbsw=  0.895226 V        
       cjgate (not used)                 cjswg=4.221e-010 f/m      
        mjswg=  0.368362                pbswg=  0.895226 V        
          la0=6.05288e-009                lags=-7.3125e-009         
        lketa=-5.16184e-009               lvoff=-5.91609e-009         
        lvth0=5.38107e-010                 lk1=1.45905e-008         
          lk2=-3.556e-009               leta0=2.55938e-010         
        letab=-3.47344e-010                 lu0=-3.30242e-010         
          lua=-2.51766e-016                 lub=2.48836e-025         
          luc=3.17066e-017               lvsat=-0.000365626         
        lpclm=1.54212e-008            lpdiblc2=1.82813e-009         
         lcit=5.42953e-011                lkt1=-2.11408e-009         
         lkt2=2.67095e-009                lute= -5.86e-010         
         lub1=-1.13609e-026                luc1=-2.35622e-017         
          wa0=3.5728e-008               wketa=-1.25751e-009         
        wvoff=2.48258e-009               wvth0=8.41494e-009         
          wk1=8.05894e-009                 wk2=-3.77675e-009         
          wu0=-8.74775e-010                 wua=-4.01758e-016         
          wub=1.33977e-025                 wuc=5.52361e-018         
        wpclm=4.02174e-009                wkt1=-3.18668e-009         
         wkt2=3.65278e-009                wute=-4.50547e-008         
         wub1=-2.01983e-027                wuc1=-3.10897e-017         
          pa0=-5.26953e-015               pketa=6.47119e-016         
        pvoff=1.26195e-015               pvth0=-2.69537e-015         
          pk1=3.57783e-015                 pk2=-2.00502e-015         
          pu0=1.17808e-016                 pua=5.47148e-023         
          pub=-6.52837e-032                 puc=-7.6012e-024         
        ppclm=-1.80978e-015                pkt1=-8.46899e-016         
         pkt2=-9.23643e-016                pute=5.17958e-015         
         pub1=1.65815e-032                puc1=5.34039e-024         
 

 
      
 **info** set option symb=1 internally to help for convergence.
 *****************************************************************
 ******  option summary
 ******
 runlvl  = 3         bypass  = 2         
  Opening plot unit= 79
 file=d:\digital electronic\projects\ca_2\full_adder_tpd_temp_100\tpd_temp_100.

1****** HSPICE -- D-2010.03-SP1 32-BIT (May 26 2010) winnt ******               
 ******  
 first line of the netlist must be blank.

  ******  operating point information tnom=  25.000 temp= 100.000 *****
 ***** operating point status is all       simulation time is     0.     
    node    =voltage      node    =voltage      node    =voltage

 +0:a       =   0.      0:b       =   0.      0:cin     =   0.     
 +0:cout    = 316.6872n 0:cout_bar=   1.8000  0:drain_n_=  39.6859m
 +0:drain_n_=  39.6859m 0:drain_n_=   1.4470  0:drain_n_= 864.6521n
 +0:drain_p_=   1.8000  0:drain_p_=   1.8000  0:drain_p_=   1.8000 
 +0:drain_p_=   1.8000  0:sum     = 316.7144n 0:sum_bar =   1.8000 
 +0:vdd     =   1.8000 


 ****  voltage sources

 subckt                                              
 element  0:v1       0:vina     0:vinb     0:vinc    
  volts      1.8000     0.         0.         0.     
  current   -1.3248n    0.         0.         0.     
  power      2.3846n    0.         0.         0.     

     total voltage source power dissipation=    2.3846n       watts




 **** mosfets


 subckt                                                                    
 element  0:m_p11    0:m_p12    0:m_p13    0:m_p14    0:m_p1     0:m_p2    
 model    0:pmos.6   0:pmos.6   0:pmos.6   0:pmos.6   0:pmos.6   0:pmos.6  
 region       Linear     Linear     Linear     Cutoff     Linear     Linear
  id       -99.5935p  -99.5935p -894.8034p   -6.4858f  -32.4683a -894.8107p
  ibs      2.481e-19  2.481e-19    2.2290a  1.674e-23  487.3003a    4.3803f
  ibd      487.0522a  487.0524a    4.3758f    8.7559f  487.3005a    8.7537f
  vgs       -1.8000    -1.8000    -1.8000  -426.8061n   -1.8000    -1.8000 
  vds     -213.4016n -213.4017n   -1.9173u   -3.8347u  -69.5000f   -1.9173u
  vbs        0.         0.         0.         0.       213.4016n    1.9173u
  vth     -450.0861m -450.0861m -450.0861m -450.0861m -450.0862m -450.0868m
  vdsat   -783.1501m -783.1501m -783.1501m  -50.7705m -783.1500m -783.1491m
  vod       -1.3499    -1.3499    -1.3499   450.0857m   -1.3499    -1.3499 
  beta     435.0656u  435.0656u  435.0656u  553.5950u  435.0656u  435.0657u
  gam eff  648.0477m  648.0477m  648.0477m  648.0477m  648.0477m  648.0477m
  gm        44.2613p   44.2613p  397.6690p  155.9129f   14.4296a  397.6734p
  gds      467.1707u  467.1707u  467.1699u    1.6913n  467.1707u  467.1693u
  gmb       28.1735p   28.1735p  253.1267p   60.9502f    9.1848a  253.1290p
  cdtot      3.6348f    3.6348f    3.6348f    2.0929f    3.6348f    3.6348f
  cgtot      2.5891f    2.5891f    2.5891f    1.4168f    2.5891f    2.5891f
  cstot      3.7534f    3.7534f    3.7534f    2.0929f    3.7534f    3.7534f
  cbtot      3.9690f    3.9690f    3.9690f    3.9102f    3.9690f    3.9690f
  cgs        1.2747f    1.2747f    1.2747f  423.1200a    1.2747f    1.2747f
  cgd        1.2747f    1.2747f    1.2747f  423.1200a    1.2747f    1.2747f



 subckt                                                                    
 element  0:m_p21    0:m_p22    0:m_p23    0:m_p24    0:m_n11    0:m_n12   
 model    0:pmos.6   0:pmos.6   0:pmos.6   0:pmos.6   0:nmos.12  0:nmos.12 
 region       Linear     Linear     Cutoff     Linear     Cutoff     Cutoff
  id       -99.5948p  -99.5948p   -6.4855f -894.8446p   95.4546p   95.4546p
  ibs      487.5484a  487.5486a    4.3781f    8.7581f -6.168e-21 -6.168e-21
  ibd      974.3559a  974.3559a   13.1337f   13.1314f -476.3383f -476.3383f
  vgs       -1.8000    -1.8000     1.4905u   -1.8000     0.         0.     
  vds     -213.4045n -213.4044n   -3.8348u   -1.9174u   39.6859m   39.6859m
  vbs      213.4016n  213.4017n    1.9173u    3.8347u    0.         0.     
  vth     -450.0862m -450.0862m -450.0868m -450.0875m  470.2536m  470.2536m
  vdsat   -783.1500m -783.1500m  -50.7705m -783.1482m   55.8038m   55.8038m
  vod       -1.3499    -1.3499   450.0883m   -1.3499  -470.2536m -470.2536m
  beta     435.0656u  435.0656u  553.5949u  435.0657u  919.0784u  919.0784u
  gam eff  648.0477m  648.0477m  648.0477m  648.0477m  968.2416m  968.2416m
  gm        44.2619p   44.2619p  155.9068f  397.6896p    2.1942n    2.1942n
  gds      467.1706u  467.1706u    1.6912n  467.1686u    1.2753n    1.2753n
  gmb       28.1739p   28.1739p   60.9478f  253.1388p  708.8212p  708.8212p
  cdtot      3.6348f    3.6348f    2.0929f    3.6347f  717.5948a  717.5948a
  cgtot      2.5891f    2.5891f    1.4168f    2.5891f  520.8064a  520.8064a
  cstot      3.7534f    3.7534f    2.0929f    3.7533f  727.3887a  727.3887a
  cbtot      3.9690f    3.9690f    3.9102f    3.9690f    1.3501f    1.3501f
  cgs        1.2747f    1.2747f  423.1200a    1.2747f  153.9300a  153.9300a
  cgd        1.2747f    1.2747f  423.1200a    1.2747f  153.9300a  153.9300a



 subckt                                                                    
 element  0:m_n13    0:m_n14    0:m_n1     0:m_n2     0:m_n21    0:m_n22   
 model    0:nmos.12  0:nmos.12  0:nmos.12  0:nmos.12  0:nmos.12  0:nmos.12 
 region       Cutoff     Linear     Cutoff     Cutoff     Cutoff     Cutoff
  id       280.2866p  601.4352p  1.271e-19 -280.2793p   95.2820p   95.2820p
  ibs     -1.820e-20 -3.885e-20 -476.3383f -714.0438f -476.3383f -476.3383f
  ibd     -714.0452f  -18.0287a -476.3383f  -18.0857a -752.9263f -752.9263f
  vgs        0.         1.8000   -39.6859m   -1.4470   -39.6859m  -39.6859m
  vds        1.4470   864.6521n  113.4000p   -1.4470     1.7603     1.7603 
  vbs        0.         0.       -39.6859m   -1.4470   -39.6859m  -39.6859m
  vth      466.3361m  470.3641m  481.8454m  466.3364m  476.2304m  476.2304m
  vdsat     55.8022m  570.3941m   55.9123m   55.8022m   55.9094m   55.9094m
  vod     -466.3361m    1.3296  -521.5313m   -1.9134  -515.9164m -515.9164m
  beta     919.4491u  750.5554u  918.0962u  919.4491u  918.6634u  918.6634u
  gam eff  968.2416m  968.2416m  972.9440m  968.2417m  972.9440m  972.9440m
  gm         6.4407n  227.6597p    2.9412a    6.4405n    2.2051n    2.2051n
  gds      104.6295p  698.5837u    1.1205n  104.6269p   33.8648p   33.8648p
  gmb        1.9821n  120.8688p  9.369e-19    1.9821n  658.4041p  658.4041p
  cdtot    561.4019a    1.2364f  717.5948a  727.3885a  543.4012a  543.4012a
  cgtot    520.8064a  881.3509a  520.8064a  520.8064a  520.8064a  520.8064a
  cstot    727.3887a    1.2805f  717.5948a  561.4019a  717.5948a  717.5948a
  cbtot      1.1939f    1.3925f    1.3403f    1.1939f    1.1661f    1.1661f
  cgs      153.9300a  427.6416a  153.9300a  153.9300a  153.9300a  153.9300a
  cgd      153.9300a  427.6415a  153.9300a  153.9300a  153.9300a  153.9300a



 subckt                         x_cout     x_cout     x_sum      x_sum     
 element  0:m_n23    0:m_n24    1:mn       1:mp       2:mn       2:mp      
 model    0:nmos.12  0:nmos.12  0:nmos.12  0:pmos.12  0:nmos.12  0:pmos.12 
 region       Cutoff     Cutoff     Linear     Cutoff     Linear     Cutoff
  id       569.5480p  317.9090p  115.3479p  -75.8966p  115.3576p  -75.9063p
  ibs     -671.9036f  -18.0882a -1.081e-20  2.835e-19 -1.081e-20  2.835e-19
  ibd     -671.9036f -994.9099f   -4.7916a   35.8513p   -4.7920a   35.8513p
  vgs      352.9805m -864.6521n    1.8000  -426.8061n    1.8000    -5.7521u
  vds      352.9752m    1.8000   316.6872n   -1.8000   316.7144n   -1.8000 
  vbs       -1.4470  -864.6521n    0.         0.         0.         0.     
  vth      751.5199m  465.3538m  480.7213m -417.9035m  480.7213m -417.9035m
  vdsat     58.6560m   55.8018m  577.2977m  -51.8412m  577.2961m  -51.8412m
  vod     -398.5393m -465.3547m    1.3193   417.9031m    1.3193   417.8978m
  beta     878.2265u  919.5406u  412.7153u  174.2467u  412.7158u  174.2467u
  gam eff    1.1005   968.2417m    1.0565   694.8753m    1.0565   694.8753m
  gm        13.8714n    7.3045n   42.9448p    1.8176n   42.9488p    1.8179n
  gds      599.9743p  108.9939p  365.8805u   24.8370p  365.8798u   24.8402p
  gmb        1.9781n    2.2210n   22.4085p  655.2213p   22.4104p  655.3035p
  cdtot    543.4014a  543.4014a  684.6134a  580.2071a  684.6134a  580.2071a
  cgtot    452.8409a  520.8064a  433.3455a  477.6986a  433.3455a  477.6982a
  cstot    561.4019a  727.3885a  706.4812a  819.9240a  706.4812a  819.9240a
  cbtot    941.9242a    1.1759f  868.9110a    1.3399f  868.9110a    1.3399f
  cgs      153.9300a  153.9300a  203.6389a  134.4800a  203.6389a  134.4800a
  cgd      153.9300a  153.9300a  203.6388a  134.4800a  203.6388a  134.4800a



 ******  
 first line of the netlist must be blank.

  ******  transient analysis tnom=  25.000 temp= 100.000 *****
   pow=  1.3551E-05  from=  1.0000E-09     to=  1.7000E-07
   tplh1=  1.3871E-10  targ=  2.6337E-09   trig=  2.4950E-09
   tplh2=  7.9420E-11  targ=  7.5744E-09   trig=  7.4950E-09
   tplh3=  1.5225E-10  targ=  1.5147E-08   trig=  1.4995E-08
   tplh4=  1.6220E-10  targ=  2.5157E-08   trig=  2.4995E-08
   tplh5=  3.1408E-10  targ=  3.2809E-08   trig=  3.2495E-08
   tplh6=  5.0517E-09  targ=  3.7547E-08   trig=  3.2495E-08
   tplh7=  2.5087E-10  targ=  4.2746E-08   trig=  4.2495E-08
   tplh8=  7.3582E-11  targ=  5.0069E-08   trig=  4.9995E-08
   tplh9=  5.7345E-11  targ=  5.5052E-08   trig=  5.4995E-08
   tplh10=  8.3835E-11  targ=  5.7579E-08   trig=  5.7495E-08
   tplh11=  1.5305E-08  targ=  7.7800E-08   trig=  6.2495E-08
   tplh12=  1.5715E-10  targ=  8.0152E-08   trig=  7.9995E-08
   tplh13=  2.7537E-09  targ=  9.0249E-08   trig=  8.7495E-08
   tplh14=  3.1385E-10  targ=  9.5309E-08   trig=  9.4995E-08
   tplh15=  3.1715E-10  targ=  1.0531E-07   trig=  1.0500E-07
   tplh16=  1.1314E-10  targ=  1.1761E-07   trig=  1.1750E-07
   tplh17=  2.7750E-10  targ=  1.2777E-07   trig=  1.2749E-07
   tplh18=  2.7881E-09  targ=  1.4528E-07   trig=  1.4250E-07
   tplh19=  1.0282E-08  targ=  1.5028E-07   trig=  1.4000E-07
   tphl1=  1.7216E-10  targ=  5.1672E-09   trig=  4.9950E-09
   tphl2=  9.8450E-11  targ=  1.2593E-08   trig=  1.2495E-08
   tphl3=  7.7343E-09  targ=  2.0229E-08   trig=  1.2495E-08
   tphl4=  1.1636E-10  targ=  3.0111E-08   trig=  2.9995E-08
   tphl5=  1.4825E-10  targ=  3.5143E-08   trig=  3.4995E-08
   tphl6=  5.1733E-11  targ=  3.7547E-08   trig=  3.7495E-08
   tphl7=  2.7269E-09  targ=  4.5222E-08   trig=  4.2495E-08
   tphl8=  2.5736E-09  targ=  5.0069E-08   trig=  4.7495E-08
   tphl9=  8.3835E-11  targ=  5.7579E-08   trig=  5.7495E-08
   tph20=  2.7972E-09  targ=  6.0292E-08   trig=  5.7495E-08
   tphl11=  2.8049E-09  targ=  7.7800E-08   trig=  7.4995E-08
   tphl12=  6.2152E-11  targ=  8.7557E-08   trig=  8.7495E-08
   tphl13=  2.5368E-10  targ=  9.0249E-08   trig=  8.9995E-08
   tphl14=  5.3172E-09  targ=  1.0531E-07   trig=  9.9995E-08
   tphl15=  2.7486E-09  targ=  1.1274E-07   trig=  1.1000E-07
   tphl16=  1.1314E-10  targ=  1.1761E-07   trig=  1.1750E-07
   tphl17=  2.5454E-10  targ=  1.4025E-07   trig=  1.4000E-07
   tphl18=  2.3356E-10  targ=  1.4773E-07   trig=  1.4750E-07
   tp1=  1.4036E-10  targ=  2.0135E-08   trig=  1.9995E-08
   tp2=  5.1594E-09  targ=  4.2654E-08   trig=  3.7495E-08
   tp3=  7.6191E-09  targ=  4.5114E-08   trig=  3.7495E-08
   tp4=  2.6449E-09  targ=  5.0140E-08   trig=  4.7495E-08
   tp5=  7.2794E-11  targ=  5.5068E-08   trig=  5.4995E-08
   tp6=  2.7219E-09  targ=  6.0217E-08   trig=  5.7495E-08
   tp7=  1.2737E-10  targ=  7.7622E-08   trig=  7.7495E-08
   tp8=  2.0135E-10  targ=  9.0196E-08   trig=  8.9995E-08
   tp9=  7.7190E-09  targ=  1.0521E-07   trig=  9.7495E-08
x

        time    voltage      voltage      voltage      voltage    
                    sum         cout           a            b     
    0.            0.           0.           0.           0.       
   10.00000p      0.           0.           0.           0.       
   20.00000p      0.           0.           0.           0.       
   30.00000p      0.           0.           0.           0.       
   40.00000p      0.           0.           0.           0.       
   50.00000p      0.           0.           0.           0.       
   60.00000p      0.           0.           0.           0.       
   70.00000p      0.           0.           0.           0.       
   80.00000p      0.           0.           0.           0.       
   90.00000p      0.           0.           0.           0.       
  100.00000p      0.           0.           0.           0.       
  110.00000p      0.           0.           0.           0.       
  120.00000p      0.           0.           0.           0.       
  130.00000p      0.           0.           0.           0.       
  140.00000p      0.           0.           0.           0.       
  150.00000p      0.           0.           0.           0.       
  160.00000p      0.           0.           0.           0.       
  170.00000p      0.           0.           0.           0.       
  180.00000p      0.           0.           0.           0.       
  190.00000p      0.           0.           0.           0.       
  200.00000p      0.           0.           0.           0.       
  210.00000p      0.           0.           0.           0.       
  220.00000p      0.           0.           0.           0.       
  230.00000p      0.           0.           0.           0.       
  240.00000p      0.           0.           0.           0.       
  250.00000p      0.           0.           0.           0.       
  260.00000p      0.           0.           0.           0.       
  270.00000p      0.           0.           0.           0.       
  280.00000p      0.           0.           0.           0.       
  290.00000p      0.           0.           0.           0.       
  300.00000p      0.           0.           0.           0.       
  310.00000p      0.           0.           0.           0.       
  320.00000p      0.           0.           0.           0.       
  330.00000p      0.           0.           0.           0.       
  340.00000p      0.           0.           0.           0.       
  350.00000p      0.           0.           0.           0.       
  360.00000p      0.           0.           0.           0.       
  370.00000p      0.           0.           0.           0.       
  380.00000p      0.           0.           0.           0.       
  390.00000p      0.           0.           0.           0.       
  400.00000p      0.           0.           0.           0.       
  410.00000p      0.           0.           0.           0.       
  420.00000p      0.           0.           0.           0.       
  430.00000p      0.           0.           0.           0.       
  440.00000p      0.           0.           0.           0.       
  450.00000p      0.           0.           0.           0.       
  460.00000p      0.           0.           0.           0.       
  470.00000p      0.           0.           0.           0.       
  480.00000p      0.           0.           0.           0.       
  490.00000p      0.           0.           0.           0.       
  500.00000p      0.           0.           0.           0.       
  510.00000p      0.           0.           0.           0.       
  520.00000p      0.           0.           0.           0.       
  530.00000p      0.           0.           0.           0.       
  540.00000p      0.           0.           0.           0.       
  550.00000p      0.           0.           0.           0.       
  560.00000p      0.           0.           0.           0.       
  570.00000p      0.           0.           0.           0.       
  580.00000p      0.           0.           0.           0.       
  590.00000p      0.           0.           0.           0.       
  600.00000p      0.           0.           0.           0.       
  610.00000p      0.           0.           0.           0.       
  620.00000p      0.           0.           0.           0.       
  630.00000p      0.           0.           0.           0.       
  640.00000p      0.           0.           0.           0.       
  650.00000p      0.           0.           0.           0.       
  660.00000p      0.           0.           0.           0.       
  670.00000p      0.           0.           0.           0.       
  680.00000p      0.           0.           0.           0.       
  690.00000p      0.           0.           0.           0.       
  700.00000p      0.           0.           0.           0.       
  710.00000p      0.           0.           0.           0.       
  720.00000p      0.           0.           0.           0.       
  730.00000p      0.           0.           0.           0.       
  740.00000p      0.           0.           0.           0.       
  750.00000p      0.           0.           0.           0.       
  760.00000p      0.           0.           0.           0.       
  770.00000p      0.           0.           0.           0.       
  780.00000p      0.           0.           0.           0.       
  790.00000p      0.           0.           0.           0.       
  800.00000p      0.           0.           0.           0.       
  810.00000p      0.           0.           0.           0.       
  820.00000p      0.           0.           0.           0.       
  830.00000p      0.           0.           0.           0.       
  840.00000p      0.           0.           0.           0.       
  850.00000p      0.           0.           0.           0.       
  860.00000p      0.           0.           0.           0.       
  870.00000p      0.           0.           0.           0.       
  880.00000p      0.           0.           0.           0.       
  890.00000p      0.           0.           0.           0.       
  900.00000p      0.           0.           0.           0.       
  910.00000p      0.           0.           0.           0.       
  920.00000p      0.           0.           0.           0.       
  930.00000p      0.           0.           0.           0.       
  940.00000p      0.           0.           0.           0.       
  950.00000p      0.           0.           0.           0.       
  960.00000p      0.           0.           0.           0.       
  970.00000p      0.           0.           0.           0.       
  980.00000p      0.           0.           0.           0.       
  990.00000p      0.           0.           0.           0.       
    1.00000n      0.           0.           0.           0.       
    1.01000n      0.           0.           0.           0.       
    1.02000n      0.           0.           0.           0.       
    1.03000n      0.           0.           0.           0.       
    1.04000n      0.           0.           0.           0.       
    1.05000n      0.           0.           0.           0.       
    1.06000n      0.           0.           0.           0.       
    1.07000n      0.           0.           0.           0.       
    1.08000n      0.           0.           0.           0.       
    1.09000n      0.           0.           0.           0.       
    1.10000n      0.           0.           0.           0.       
    1.11000n      0.           0.           0.           0.       
    1.12000n      0.           0.           0.           0.       
    1.13000n      0.           0.           0.           0.       
    1.14000n      0.           0.           0.           0.       
    1.15000n      0.           0.           0.           0.       
    1.16000n      0.           0.           0.           0.       
    1.17000n      0.           0.           0.           0.       
    1.18000n      0.           0.           0.           0.       
    1.19000n      0.           0.           0.           0.       
    1.20000n      0.           0.           0.           0.       
    1.21000n      0.           0.           0.           0.       
    1.22000n      0.           0.           0.           0.       
    1.23000n      0.           0.           0.           0.       
    1.24000n      0.           0.           0.           0.       
    1.25000n      0.           0.           0.           0.       
    1.26000n      0.           0.           0.           0.       
    1.27000n      0.           0.           0.           0.       
    1.28000n      0.           0.           0.           0.       
    1.29000n      0.           0.           0.           0.       
    1.30000n      0.           0.           0.           0.       
    1.31000n      0.           0.           0.           0.       
    1.32000n      0.           0.           0.           0.       
    1.33000n      0.           0.           0.           0.       
    1.34000n      0.           0.           0.           0.       
    1.35000n      0.           0.           0.           0.       
    1.36000n      0.           0.           0.           0.       
    1.37000n      0.           0.           0.           0.       
    1.38000n      0.           0.           0.           0.       
    1.39000n      0.           0.           0.           0.       
    1.40000n      0.           0.           0.           0.       
    1.41000n      0.           0.           0.           0.       
    1.42000n      0.           0.           0.           0.       
    1.43000n      0.           0.           0.           0.       
    1.44000n      0.           0.           0.           0.       
    1.45000n      0.           0.           0.           0.       
    1.46000n      0.           0.           0.           0.       
    1.47000n      0.           0.           0.           0.       
    1.48000n      0.           0.           0.           0.       
    1.49000n      0.           0.           0.           0.       
    1.50000n      0.           0.           0.           0.       
    1.51000n      0.           0.           0.           0.       
    1.52000n      0.           0.           0.           0.       
    1.53000n      0.           0.           0.           0.       
    1.54000n      0.           0.           0.           0.       
    1.55000n      0.           0.           0.           0.       
    1.56000n      0.           0.           0.           0.       
    1.57000n      0.           0.           0.           0.       
    1.58000n      0.           0.           0.           0.       
    1.59000n      0.           0.           0.           0.       
    1.60000n      0.           0.           0.           0.       
    1.61000n      0.           0.           0.           0.       
    1.62000n      0.           0.           0.           0.       
    1.63000n      0.           0.           0.           0.       
    1.64000n      0.           0.           0.           0.       
    1.65000n      0.           0.           0.           0.       
    1.66000n      0.           0.           0.           0.       
    1.67000n      0.           0.           0.           0.       
    1.68000n      0.           0.           0.           0.       
    1.69000n      0.           0.           0.           0.       
    1.70000n      0.           0.           0.           0.       
    1.71000n      0.           0.           0.           0.       
    1.72000n      0.           0.           0.           0.       
    1.73000n      0.           0.           0.           0.       
    1.74000n      0.           0.           0.           0.       
    1.75000n      0.           0.           0.           0.       
    1.76000n      0.           0.           0.           0.       
    1.77000n      0.           0.           0.           0.       
    1.78000n      0.           0.           0.           0.       
    1.79000n      0.           0.           0.           0.       
    1.80000n      0.           0.           0.           0.       
    1.81000n      0.           0.           0.           0.       
    1.82000n      0.           0.           0.           0.       
    1.83000n      0.           0.           0.           0.       
    1.84000n      0.           0.           0.           0.       
    1.85000n      0.           0.           0.           0.       
    1.86000n      0.           0.           0.           0.       
    1.87000n      0.           0.           0.           0.       
    1.88000n      0.           0.           0.           0.       
    1.89000n      0.           0.           0.           0.       
    1.90000n      0.           0.           0.           0.       
    1.91000n      0.           0.           0.           0.       
    1.92000n      0.           0.           0.           0.       
    1.93000n      0.           0.           0.           0.       
    1.94000n      0.           0.           0.           0.       
    1.95000n      0.           0.           0.           0.       
    1.96000n      0.           0.           0.           0.       
    1.97000n      0.           0.           0.           0.       
    1.98000n      0.           0.           0.           0.       
    1.99000n      0.           0.           0.           0.       
    2.00000n      0.           0.           0.           0.       
    2.01000n      0.           0.           0.           0.       
    2.02000n      0.           0.           0.           0.       
    2.03000n      0.           0.           0.           0.       
    2.04000n      0.           0.           0.           0.       
    2.05000n      0.           0.           0.           0.       
    2.06000n      0.           0.           0.           0.       
    2.07000n      0.           0.           0.           0.       
    2.08000n      0.           0.           0.           0.       
    2.09000n      0.           0.           0.           0.       
    2.10000n      0.           0.           0.           0.       
    2.11000n      0.           0.           0.           0.       
    2.12000n      0.           0.           0.           0.       
    2.13000n      0.           0.           0.           0.       
    2.14000n      0.           0.           0.           0.       
    2.15000n      0.           0.           0.           0.       
    2.16000n      0.           0.           0.           0.       
    2.17000n      0.           0.           0.           0.       
    2.18000n      0.           0.           0.           0.       
    2.19000n      0.           0.           0.           0.       
    2.20000n      0.           0.           0.           0.       
    2.21000n      0.           0.           0.           0.       
    2.22000n      0.           0.           0.           0.       
    2.23000n      0.           0.           0.           0.       
    2.24000n      0.           0.           0.           0.       
    2.25000n      0.           0.           0.           0.       
    2.26000n      0.           0.           0.           0.       
    2.27000n      0.           0.           0.           0.       
    2.28000n      0.           0.           0.           0.       
    2.29000n      0.           0.           0.           0.       
    2.30000n      0.           0.           0.           0.       
    2.31000n      0.           0.           0.           0.       
    2.32000n      0.           0.           0.           0.       
    2.33000n      0.           0.           0.           0.       
    2.34000n      0.           0.           0.           0.       
    2.35000n      0.           0.           0.           0.       
    2.36000n      0.           0.           0.           0.       
    2.37000n      0.           0.           0.           0.       
    2.38000n      0.           0.           0.           0.       
    2.39000n      0.           0.           0.           0.       
    2.40000n      0.           0.           0.           0.       
    2.41000n      0.           0.           0.           0.       
    2.42000n      0.           0.           0.           0.       
    2.43000n      0.           0.           0.           0.       
    2.44000n      0.           0.           0.           0.       
    2.45000n      0.           0.           0.           0.       
    2.46000n      0.           0.           0.           0.       
    2.47000n      0.           0.           0.           0.       
    2.48000n      0.           0.           0.           0.       
    2.49000n      0.           0.           0.           0.       
    2.50000n      1.1586m      6.1646m      0.           0.       
    2.51000n     -8.0364m     -6.3921m      0.           0.       
    2.52000n    -11.0698m     -2.4011m      0.           0.       
    2.53000n    -10.7517m   -965.0307u      0.           0.       
    2.54000n     -9.8372m   -582.4917u      0.           0.       
    2.55000n     -6.9449m   -428.1205u      0.           0.       
    2.56000n     -2.8037m   -333.6580u      0.           0.       
    2.57000n     12.4900m   -267.3168u      0.           0.       
    2.58000n     31.3838m   -210.0534u      0.           0.       
    2.59000n     50.2775m   -152.7900u      0.           0.       
    2.60000n    186.3181m   -131.0081u      0.           0.       
    2.61000n    329.7975m   -111.4793u      0.           0.       
    2.62000n    553.0428m   -116.1100u      0.           0.       
    2.63000n    806.1717m   -129.7919u      0.           0.       
    2.64000n      1.0524     -83.0456u      0.           0.       
    2.65000n      1.2922      20.6924u      0.           0.       
    2.66000n      1.5319     124.4303u      0.           0.       
    2.67000n      1.6548     161.3188u      0.           0.       
    2.68000n      1.7178     196.1645u      0.           0.       
    2.69000n      1.7623     230.6620u      0.           0.       
    2.70000n      1.7742     249.2295u      0.           0.       
    2.71000n      1.7861     267.7971u      0.           0.       
    2.72000n      1.7925     269.8347u      0.           0.       
    2.73000n      1.7940     257.5333u      0.           0.       
    2.74000n      1.7955     245.2320u      0.           0.       
    2.75000n      1.7963     222.9040u      0.           0.       
    2.76000n      1.7970     200.0245u      0.           0.       
    2.77000n      1.7978     177.1450u      0.           0.       
    2.78000n      1.7983     157.3621u      0.           0.       
    2.79000n      1.7985     141.3446u      0.           0.       
    2.80000n      1.7987     125.3271u      0.           0.       
    2.81000n      1.7989     109.3096u      0.           0.       
    2.82000n      1.7991      93.2921u      0.           0.       
    2.83000n      1.7993      78.6529u      0.           0.       
    2.84000n      1.7993      71.4842u      0.           0.       
    2.85000n      1.7994      64.3154u      0.           0.       
    2.86000n      1.7994      57.1467u      0.           0.       
    2.87000n      1.7995      49.9779u      0.           0.       
    2.88000n      1.7996      42.8091u      0.           0.       
    2.89000n      1.7996      35.6404u      0.           0.       
    2.90000n      1.7997      28.4716u      0.           0.       
    2.91000n      1.7997      25.7837u      0.           0.       
    2.92000n      1.7997      23.9677u      0.           0.       
    2.93000n      1.7997      22.1517u      0.           0.       
    2.94000n      1.7997      20.3357u      0.           0.       
    2.95000n      1.7998      18.5196u      0.           0.       
    2.96000n      1.7998      16.7036u      0.           0.       
    2.97000n      1.7998      14.8876u      0.           0.       
    2.98000n      1.7998      13.0716u      0.           0.       
    2.99000n      1.7998      11.2556u      0.           0.       
    3.00000n      1.7998       9.4396u      0.           0.       
    3.01000n      1.7999       7.6236u      0.           0.       
    3.02000n      1.7999       6.5603u      0.           0.       
    3.03000n      1.7999       6.3129u      0.           0.       
    3.04000n      1.7999       6.0655u      0.           0.       
    3.05000n      1.7999       5.8181u      0.           0.       
    3.06000n      1.7999       5.5707u      0.           0.       
    3.07000n      1.7999       5.3233u      0.           0.       
    3.08000n      1.7999       5.0759u      0.           0.       
    3.09000n      1.7999       4.8285u      0.           0.       
    3.10000n      1.7999       4.5811u      0.           0.       
    3.11000n      1.7999       4.3337u      0.           0.       
    3.12000n      1.7999       4.0863u      0.           0.       
    3.13000n      1.7999       3.8389u      0.           0.       
    3.14000n      1.7999       3.5915u      0.           0.       
    3.15000n      1.7999       3.3441u      0.           0.       
    3.16000n      1.7999       3.0967u      0.           0.       
    3.17000n      1.7999       2.8493u      0.           0.       
    3.18000n      1.7999       2.6019u      0.           0.       
    3.19000n      1.8000       2.3545u      0.           0.       
    3.20000n      1.8000       2.1071u      0.           0.       
    3.21000n      1.8000       2.0577u      0.           0.       
    3.22000n      1.8000       2.0476u      0.           0.       
    3.23000n      1.8000       2.0375u      0.           0.       
    3.24000n      1.8000       2.0273u      0.           0.       
    3.25000n      1.8000       2.0172u      0.           0.       
    3.26000n      1.8000       2.0071u      0.           0.       
    3.27000n      1.8000       1.9969u      0.           0.       
    3.28000n      1.8000       1.9868u      0.           0.       
    3.29000n      1.8000       1.9767u      0.           0.       
    3.30000n      1.8000       1.9666u      0.           0.       
    3.31000n      1.8000       1.9564u      0.           0.       
    3.32000n      1.8000       1.9463u      0.           0.       
    3.33000n      1.8000       1.9362u      0.           0.       
    3.34000n      1.8000       1.9260u      0.           0.       
    3.35000n      1.8000       1.9159u      0.           0.       
    3.36000n      1.8000       1.9058u      0.           0.       
    3.37000n      1.8000       1.8956u      0.           0.       
    3.38000n      1.8000       1.8855u      0.           0.       
    3.39000n      1.8000       1.8754u      0.           0.       
    3.40000n      1.8000       1.8652u      0.           0.       
    3.41000n      1.8000       1.8551u      0.           0.       
    3.42000n      1.8000       1.8450u      0.           0.       
    3.43000n      1.8000       1.8348u      0.           0.       
    3.44000n      1.8000       1.8247u      0.           0.       
    3.45000n      1.8000       1.8146u      0.           0.       
    3.46000n      1.8000       1.8045u      0.           0.       
    3.47000n      1.8000       1.7943u      0.           0.       
    3.48000n      1.8000       1.7842u      0.           0.       
    3.49000n      1.8000       1.7741u      0.           0.       
    3.50000n      1.8000       1.7544u      0.           0.       
    3.51000n      1.8000       1.7180u      0.           0.       
    3.52000n      1.8000       1.6816u      0.           0.       
    3.53000n      1.8000       1.6451u      0.           0.       
    3.54000n      1.8000       1.6087u      0.           0.       
    3.55000n      1.8000       1.5722u      0.           0.       
    3.56000n      1.8000       1.5358u      0.           0.       
    3.57000n      1.8000       1.4994u      0.           0.       
    3.58000n      1.8000       1.4629u      0.           0.       
    3.59000n      1.8000       1.4265u      0.           0.       
    3.60000n      1.8000       1.3900u      0.           0.       
    3.61000n      1.8000       1.3536u      0.           0.       
    3.62000n      1.8000       1.3172u      0.           0.       
    3.63000n      1.8000       1.2807u      0.           0.       
    3.64000n      1.8000       1.2443u      0.           0.       
    3.65000n      1.8000       1.2078u      0.           0.       
    3.66000n      1.8000       1.1714u      0.           0.       
    3.67000n      1.8000       1.1350u      0.           0.       
    3.68000n      1.8000       1.0985u      0.           0.       
    3.69000n      1.8000       1.0621u      0.           0.       
    3.70000n      1.8000       1.0256u      0.           0.       
    3.71000n      1.8000     989.2063n      0.           0.       
    3.72000n      1.8000     952.7664n      0.           0.       
    3.73000n      1.8000     916.3264n      0.           0.       
    3.74000n      1.8000     879.8864n      0.           0.       
    3.75000n      1.8000     843.4465n      0.           0.       
    3.76000n      1.8000     807.0065n      0.           0.       
    3.77000n      1.8000     770.5665n      0.           0.       
    3.78000n      1.8000     734.1265n      0.           0.       
    3.79000n      1.8000     697.6866n      0.           0.       
    3.80000n      1.8000     661.2466n      0.           0.       
    3.81000n      1.8000     624.8066n      0.           0.       
    3.82000n      1.8000     588.3667n      0.           0.       
    3.83000n      1.8000     551.9267n      0.           0.       
    3.84000n      1.8000     515.4867n      0.           0.       
    3.85000n      1.8000     479.0468n      0.           0.       
    3.86000n      1.8000     442.6068n      0.           0.       
    3.87000n      1.8000     406.1668n      0.           0.       
    3.88000n      1.8000     369.7269n      0.           0.       
    3.89000n      1.8000     333.2869n      0.           0.       
    3.90000n      1.8000     296.8469n      0.           0.       
    3.91000n      1.8000     260.4070n      0.           0.       
    3.92000n      1.8000     223.9670n      0.           0.       
    3.93000n      1.8000     187.5270n      0.           0.       
    3.94000n      1.8000     151.0870n      0.           0.       
    3.95000n      1.8000     114.6471n      0.           0.       
    3.96000n      1.8000      78.2071n      0.           0.       
    3.97000n      1.8000      41.7671n      0.           0.       
    3.98000n      1.8000       5.3272n      0.           0.       
    3.99000n      1.8000      15.4406n      0.           0.       
    4.00000n      1.8000      33.5249n      0.           0.       
    4.01000n      1.8000      51.6093n      0.           0.       
    4.02000n      1.8000      69.6936n      0.           0.       
    4.03000n      1.8000      87.7780n      0.           0.       
    4.04000n      1.8000     105.8623n      0.           0.       
    4.05000n      1.8000     123.9467n      0.           0.       
    4.06000n      1.8000     142.0310n      0.           0.       
    4.07000n      1.8000     160.1153n      0.           0.       
    4.08000n      1.8000     178.1997n      0.           0.       
    4.09000n      1.8000     196.2840n      0.           0.       
    4.10000n      1.8000     214.3684n      0.           0.       
    4.11000n      1.8000     232.4527n      0.           0.       
    4.12000n      1.8000     250.5371n      0.           0.       
    4.13000n      1.8000     268.6214n      0.           0.       
    4.14000n      1.8000     286.7057n      0.           0.       
    4.15000n      1.8000     304.7901n      0.           0.       
    4.16000n      1.8000     322.8744n      0.           0.       
    4.17000n      1.8000     340.9588n      0.           0.       
    4.18000n      1.8000     359.0431n      0.           0.       
    4.19000n      1.8000     377.1275n      0.           0.       
    4.20000n      1.8000     395.2118n      0.           0.       
    4.21000n      1.8000     413.2962n      0.           0.       
    4.22000n      1.8000     431.3805n      0.           0.       
    4.23000n      1.8000     449.4648n      0.           0.       
    4.24000n      1.8000     467.5492n      0.           0.       
    4.25000n      1.8000     485.6335n      0.           0.       
    4.26000n      1.8000     503.7179n      0.           0.       
    4.27000n      1.8000     521.8022n      0.           0.       
    4.28000n      1.8000     539.8866n      0.           0.       
    4.29000n      1.8000     557.9709n      0.           0.       
    4.30000n      1.8000     576.0552n      0.           0.       
    4.31000n      1.8000     594.1396n      0.           0.       
    4.32000n      1.8000     612.2239n      0.           0.       
    4.33000n      1.8000     630.3083n      0.           0.       
    4.34000n      1.8000     648.3926n      0.           0.       
    4.35000n      1.8000     666.4770n      0.           0.       
    4.36000n      1.8000     684.5613n      0.           0.       
    4.37000n      1.8000     702.6457n      0.           0.       
    4.38000n      1.8000     720.7300n      0.           0.       
    4.39000n      1.8000     738.8143n      0.           0.       
    4.40000n      1.8000     756.8987n      0.           0.       
    4.41000n      1.8000     774.9830n      0.           0.       
    4.42000n      1.8000     793.0674n      0.           0.       
    4.43000n      1.8000     811.1517n      0.           0.       
    4.44000n      1.8000     829.2361n      0.           0.       
    4.45000n      1.8000     847.3204n      0.           0.       
    4.46000n      1.8000     865.4047n      0.           0.       
    4.47000n      1.8000     883.4891n      0.           0.       
    4.48000n      1.8000     901.5734n      0.           0.       
    4.49000n      1.8000     919.6578n      0.           0.       
    4.50000n      1.8000     937.7421n      0.           0.       
    4.51000n      1.8000     955.8265n      0.           0.       
    4.52000n      1.8000     973.9108n      0.           0.       
    4.53000n      1.8000     991.9952n      0.           0.       
    4.54000n      1.8000       1.0101u      0.           0.       
    4.55000n      1.8000       1.0282u      0.           0.       
    4.56000n      1.8000       1.0462u      0.           0.       
    4.57000n      1.8000       1.0643u      0.           0.       
    4.58000n      1.8000       1.0824u      0.           0.       
    4.59000n      1.8000       1.1005u      0.           0.       
    4.60000n      1.8000       1.1186u      0.           0.       
    4.61000n      1.8000       1.1367u      0.           0.       
    4.62000n      1.8000       1.1548u      0.           0.       
    4.63000n      1.8000       1.1728u      0.           0.       
    4.64000n      1.8000       1.1836u      0.           0.       
    4.65000n      1.8000       1.1498u      0.           0.       
    4.66000n      1.8000       1.1160u      0.           0.       
    4.67000n      1.8000       1.0822u      0.           0.       
    4.68000n      1.8000       1.0483u      0.           0.       
    4.69000n      1.8000       1.0145u      0.           0.       
    4.70000n      1.8000     980.7059n      0.           0.       
    4.71000n      1.8000     946.8884n      0.           0.       
    4.72000n      1.8000     913.0710n      0.           0.       
    4.73000n      1.8000     879.2535n      0.           0.       
    4.74000n      1.8000     845.4361n      0.           0.       
    4.75000n      1.8000     811.6186n      0.           0.       
    4.76000n      1.8000     777.8012n      0.           0.       
    4.77000n      1.8000     743.9838n      0.           0.       
    4.78000n      1.8000     710.1663n      0.           0.       
    4.79000n      1.8000     676.3489n      0.           0.       
    4.80000n      1.8000     642.5314n      0.           0.       
    4.81000n      1.8000     608.7140n      0.           0.       
    4.82000n      1.8000     574.8965n      0.           0.       
    4.83000n      1.8000     541.0791n      0.           0.       
    4.84000n      1.8000     507.2616n      0.           0.       
    4.85000n      1.8000     473.4442n      0.           0.       
    4.86000n      1.8000     439.6268n      0.           0.       
    4.87000n      1.8000     405.8093n      0.           0.       
    4.88000n      1.8000     371.9919n      0.           0.       
    4.89000n      1.8000     338.1744n      0.           0.       
    4.90000n      1.8000     304.3570n      0.           0.       
    4.91000n      1.8000     270.5395n      0.           0.       
    4.92000n      1.8000     236.7221n      0.           0.       
    4.93000n      1.8000     202.9047n      0.           0.       
    4.94000n      1.8000     169.0872n      0.           0.       
    4.95000n      1.8000     135.2698n      0.           0.       
    4.96000n      1.8000     101.4523n      0.           0.       
    4.97000n      1.8000      67.6349n      0.           0.       
    4.98000n      1.8000      33.8174n      0.           0.       
    4.99000n      1.8000     2.753e-21      0.           0.       
    5.00000n      1.7878     -14.2360m      0.           0.       
    5.01000n      1.7947       2.5276m      0.           0.       
    5.02000n      1.7993       2.6189m      0.           0.       
    5.03000n      1.8031       1.9959m      0.           0.       
    5.04000n      1.8072       1.4646m      0.           0.       
    5.05000n      1.8126       1.2120m      0.           0.       
    5.06000n      1.8183       1.0141m      0.           0.       
    5.07000n      1.8232     829.6409u      0.           0.       
    5.08000n      1.8281     645.5415u      0.           0.       
    5.09000n      1.8195     520.9813u      0.           0.       
    5.10000n      1.8053     421.7018u      0.           0.       
    5.11000n      1.7910     322.4223u      0.           0.       
    5.12000n      1.7424     230.3903u      0.           0.       
    5.13000n      1.6460     148.4291u      0.           0.       
    5.14000n      1.5135      74.1064u      0.           0.       
    5.15000n      1.3592       4.3853u      0.           0.       
    5.16000n      1.1005     -62.6627u      0.           0.       
    5.17000n    797.0865m   -127.7586u      0.           0.       
    5.18000n    422.1307m   -188.5351u      0.           0.       
    5.19000n    188.9867m   -193.2382u      0.           0.       
    5.20000n     36.3741m   -165.1014u      0.           0.       
    5.21000n    -12.1383m    -82.3507u      0.           0.       
    5.22000n    -22.4688m    -53.7436u      0.           0.       
    5.23000n      9.0149m    -84.4305u      0.           0.       
    5.24000n     17.2582m    -92.6432u      0.           0.       
    5.25000n      9.1112m    -85.0058u      0.           0.       
    5.26000n    964.2697u    -77.3685u      0.           0.       
    5.27000n     -6.2210m    -70.0479u      0.           0.       
    5.28000n   -202.1955u    -67.0765u      0.           0.       
    5.29000n      5.8166m    -64.1050u      0.           0.       
    5.30000n      4.7263m    -60.8038u      0.           0.       
    5.31000n      2.2272m    -57.4372u      0.           0.       
    5.32000n   -271.8495u    -54.0706u      0.           0.       
    5.33000n   -805.4609u    -50.0698u      0.           0.       
    5.34000n     89.5527u    -45.6079u      0.           0.       
    5.35000n    984.5663u    -41.1460u      0.           0.       
    5.36000n      1.8796m    -36.6842u      0.           0.       
    5.37000n      2.7746m    -32.2223u      0.           0.       
    5.38000n      2.1960m    -30.1248u      0.           0.       
    5.39000n      1.5429m    -28.1469u      0.           0.       
    5.40000n    889.7263u    -26.1691u      0.           0.       
    5.41000n    236.5705u    -24.1912u      0.           0.       
    5.42000n   -416.5853u    -22.2134u      0.           0.       
    5.43000n     -1.0697m    -20.2356u      0.           0.       
    5.44000n   -934.9771u    -18.5877u      0.           0.       
    5.45000n   -680.3550u    -16.9899u      0.           0.       
    5.46000n   -425.7329u    -15.3922u      0.           0.       
    5.47000n   -171.1108u    -13.7945u      0.           0.       
    5.48000n     83.5112u    -12.1968u      0.           0.       
    5.49000n    338.1333u    -10.5991u      0.           0.       
    5.50000n    592.7554u     -9.0013u      0.           0.       
    5.51000n    847.3775u     -7.4036u      0.           0.       
    5.52000n      1.1020m     -5.8059u      0.           0.       
    5.53000n      1.3566m     -4.2082u      0.           0.       
    5.54000n      1.3207m     -3.5503u      0.           0.       
    5.55000n      1.1208m     -3.4226u      0.           0.       
    5.56000n    920.8805u     -3.2948u      0.           0.       
    5.57000n    720.9946u     -3.1671u      0.           0.       
    5.58000n    521.1087u     -3.0394u      0.           0.       
    5.59000n    321.2229u     -2.9116u      0.           0.       
    5.60000n    121.3370u     -2.7839u      0.           0.       
    5.61000n    -78.5489u     -2.6561u      0.           0.       
    5.62000n   -278.4347u     -2.5284u      0.           0.       
    5.63000n   -478.3206u     -2.4007u      0.           0.       
    5.64000n   -678.2065u     -2.2729u      0.           0.       
    5.65000n   -878.0923u     -2.1452u      0.           0.       
    5.66000n     -1.0780m     -2.0175u      0.           0.       
    5.67000n     -1.1335m     -1.8591u      0.           0.       
    5.68000n     -1.0072m     -1.6622u      0.           0.       
    5.69000n   -880.8886u     -1.4652u      0.           0.       
    5.70000n   -754.6072u     -1.2683u      0.           0.       
    5.71000n   -628.3259u     -1.0714u      0.           0.       
    5.72000n   -502.0445u   -874.4640n      0.           0.       
    5.73000n   -375.7632u   -677.5382n      0.           0.       
    5.74000n   -249.4818u   -480.6123n      0.           0.       
    5.75000n   -123.2005u   -283.6865n      0.           0.       
    5.76000n      3.0809u    -86.7606n      0.           0.       
    5.77000n    129.3623u    110.1652n      0.           0.       
    5.78000n    255.6436u    307.0911n      0.           0.       
    5.79000n    381.9250u    504.0170n      0.           0.       
    5.80000n    508.2063u    700.9428n      0.           0.       
    5.81000n    634.4877u    897.8687n      0.           0.       
    5.82000n    760.7691u      1.0948u      0.           0.       
    5.83000n    887.0504u      1.2917u      0.           0.       
    5.84000n      1.0133m      1.4886u      0.           0.       
    5.85000n      1.1059m      1.6370u      0.           0.       
    5.86000n      1.0203m      1.5292u      0.           0.       
    5.87000n    934.7220u      1.4213u      0.           0.       
    5.88000n    849.1497u      1.3135u      0.           0.       
    5.89000n    763.5774u      1.2057u      0.           0.       
    5.90000n    678.0050u      1.0978u      0.           0.       
    5.91000n    592.4327u    989.9846n      0.           0.       
    5.92000n    506.8604u    882.1445n      0.           0.       
    5.93000n    421.2880u    774.3043n      0.           0.       
    5.94000n    335.7157u    666.4642n      0.           0.       
    5.95000n    250.1434u    558.6240n      0.           0.       
    5.96000n    164.5711u    450.7839n      0.           0.       
    5.97000n     78.9987u    342.9437n      0.           0.       
    5.98000n     -6.5736u    235.1036n      0.           0.       
    5.99000n    -92.1459u    127.2634n      0.           0.       
    6.00000n   -177.7183u     19.4233n      0.           0.       
    6.01000n   -263.2906u    -88.4169n      0.           0.       
    6.02000n   -348.8629u   -196.2570n      0.           0.       
    6.03000n   -434.4353u   -304.0972n      0.           0.       
    6.04000n   -520.0076u   -411.9373n      0.           0.       
    6.05000n   -605.5799u   -519.7775n      0.           0.       
    6.06000n   -691.1523u   -627.6177n      0.           0.       
    6.07000n   -776.7246u   -735.4578n      0.           0.       
    6.08000n   -862.2969u   -843.2980n      0.           0.       
    6.09000n   -947.8693u   -951.1381n      0.           0.       
    6.10000n     -1.0334m     -1.0590u      0.           0.       
    6.11000n     -1.0303m     -1.0529u      0.           0.       
    6.12000n   -987.7237u   -996.2332n      0.           0.       
    6.13000n   -945.1765u   -939.5832n      0.           0.       
    6.14000n   -902.6292u   -882.9332n      0.           0.       
    6.15000n   -860.0820u   -826.2833n      0.           0.       
    6.16000n   -817.5347u   -769.6333n      0.           0.       
    6.17000n   -774.9874u   -712.9833n      0.           0.       
    6.18000n   -732.4402u   -656.3333n      0.           0.       
    6.19000n   -689.8929u   -599.6833n      0.           0.       
    6.20000n   -647.3456u   -543.0334n      0.           0.       
    6.21000n   -604.7984u   -486.3834n      0.           0.       
    6.22000n   -562.2511u   -429.7334n      0.           0.       
    6.23000n   -519.7038u   -373.0834n      0.           0.       
    6.24000n   -477.1566u   -316.4334n      0.           0.       
    6.25000n   -434.6093u   -259.7835n      0.           0.       
    6.26000n   -392.0621u   -203.1335n      0.           0.       
    6.27000n   -349.5148u   -146.4835n      0.           0.       
    6.28000n   -306.9675u    -89.8335n      0.           0.       
    6.29000n   -264.4203u    -33.1835n      0.           0.       
    6.30000n   -221.8730u     23.4664n      0.           0.       
    6.31000n   -179.3257u     80.1164n      0.           0.       
    6.32000n   -136.7785u    136.7664n      0.           0.       
    6.33000n    -94.2312u    193.4164n      0.           0.       
    6.34000n    -51.6840u    250.0664n      0.           0.       
    6.35000n     -9.1367u    306.7163n      0.           0.       
    6.36000n     33.4106u    363.3663n      0.           0.       
    6.37000n     75.9578u    420.0163n      0.           0.       
    6.38000n    118.5051u    476.6663n      0.           0.       
    6.39000n    161.0524u    533.3163n      0.           0.       
    6.40000n    203.5996u    589.9662n      0.           0.       
    6.41000n    246.1469u    646.6162n      0.           0.       
    6.42000n    288.6941u    703.2662n      0.           0.       
    6.43000n    331.2414u    759.9162n      0.           0.       
    6.44000n    373.7887u    816.5662n      0.           0.       
    6.45000n    416.3359u    873.2162n      0.           0.       
    6.46000n    458.8832u    929.8661n      0.           0.       
    6.47000n    501.4305u    986.5161n      0.           0.       
    6.48000n    543.9777u      1.0432u      0.           0.       
    6.49000n    586.5250u      1.0998u      0.           0.       
    6.50000n    629.0722u      1.1565u      0.           0.       
    6.51000n    671.6195u      1.2131u      0.           0.       
    6.52000n    714.1668u      1.2698u      0.           0.       
    6.53000n    756.7140u      1.3264u      0.           0.       
    6.54000n    799.2613u      1.3831u      0.           0.       
    6.55000n    841.8086u      1.4397u      0.           0.       
    6.56000n    884.3558u      1.4964u      0.           0.       
    6.57000n    926.9031u      1.5530u      0.           0.       
    6.58000n    969.4503u      1.6097u      0.           0.       
    6.59000n      1.0120m      1.6663u      0.           0.       
    6.60000n      1.0191m      1.6755u      0.           0.       
    6.61000n    996.2876u      1.6446u      0.           0.       
    6.62000n    973.4442u      1.6137u      0.           0.       
    6.63000n    950.6008u      1.5828u      0.           0.       
    6.64000n    927.7573u      1.5518u      0.           0.       
    6.65000n    904.9139u      1.5209u      0.           0.       
[...]
  163.49000n      0.       
  163.50000n      0.       
  163.51000n      0.       
  163.52000n      0.       
  163.53000n      0.       
  163.54000n      0.       
  163.55000n      0.       
  163.56000n      0.       
  163.57000n      0.       
  163.58000n      0.       
  163.59000n      0.       
  163.60000n      0.       
  163.61000n      0.       
  163.62000n      0.       
  163.63000n      0.       
  163.64000n      0.       
  163.65000n      0.       
  163.66000n      0.       
  163.67000n      0.       
  163.68000n      0.       
  163.69000n      0.       
  163.70000n      0.       
  163.71000n      0.       
  163.72000n      0.       
  163.73000n      0.       
  163.74000n      0.       
  163.75000n      0.       
  163.76000n      0.       
  163.77000n      0.       
  163.78000n      0.       
  163.79000n      0.       
  163.80000n      0.       
  163.81000n      0.       
  163.82000n      0.       
  163.83000n      0.       
  163.84000n      0.       
  163.85000n      0.       
  163.86000n      0.       
  163.87000n      0.       
  163.88000n      0.       
  163.89000n      0.       
  163.90000n      0.       
  163.91000n      0.       
  163.92000n      0.       
  163.93000n      0.       
  163.94000n      0.       
  163.95000n      0.       
  163.96000n      0.       
  163.97000n      0.       
  163.98000n      0.       
  163.99000n      0.       
  164.00000n      0.       
  164.01000n      0.       
  164.02000n      0.       
  164.03000n      0.       
  164.04000n      0.       
  164.05000n      0.       
  164.06000n      0.       
  164.07000n      0.       
  164.08000n      0.       
  164.09000n      0.       
  164.10000n      0.       
  164.11000n      0.       
  164.12000n      0.       
  164.13000n      0.       
  164.14000n      0.       
  164.15000n      0.       
  164.16000n      0.       
  164.17000n      0.       
  164.18000n      0.       
  164.19000n      0.       
  164.20000n      0.       
  164.21000n      0.       
  164.22000n      0.       
  164.23000n      0.       
  164.24000n      0.       
  164.25000n      0.       
  164.26000n      0.       
  164.27000n      0.       
  164.28000n      0.       
  164.29000n      0.       
  164.30000n      0.       
  164.31000n      0.       
  164.32000n      0.       
  164.33000n      0.       
  164.34000n      0.       
  164.35000n      0.       
  164.36000n      0.       
  164.37000n      0.       
  164.38000n      0.       
  164.39000n      0.       
  164.40000n      0.       
  164.41000n      0.       
  164.42000n      0.       
  164.43000n      0.       
  164.44000n      0.       
  164.45000n      0.       
  164.46000n      0.       
  164.47000n      0.       
  164.48000n      0.       
  164.49000n      0.       
  164.50000n      0.       
  164.51000n      0.       
  164.52000n      0.       
  164.53000n      0.       
  164.54000n      0.       
  164.55000n      0.       
  164.56000n      0.       
  164.57000n      0.       
  164.58000n      0.       
  164.59000n      0.       
  164.60000n      0.       
  164.61000n      0.       
  164.62000n      0.       
  164.63000n      0.       
  164.64000n      0.       
  164.65000n      0.       
  164.66000n      0.       
  164.67000n      0.       
  164.68000n      0.       
  164.69000n      0.       
  164.70000n      0.       
  164.71000n      0.       
  164.72000n      0.       
  164.73000n      0.       
  164.74000n      0.       
  164.75000n      0.       
  164.76000n      0.       
  164.77000n      0.       
  164.78000n      0.       
  164.79000n      0.       
  164.80000n      0.       
  164.81000n      0.       
  164.82000n      0.       
  164.83000n      0.       
  164.84000n      0.       
  164.85000n      0.       
  164.86000n      0.       
  164.87000n      0.       
  164.88000n      0.       
  164.89000n      0.       
  164.90000n      0.       
  164.91000n      0.       
  164.92000n      0.       
  164.93000n      0.       
  164.94000n      0.       
  164.95000n      0.       
  164.96000n      0.       
  164.97000n      0.       
  164.98000n      0.       
  164.99000n      0.       
  165.00000n      0.       
  165.01000n      0.       
  165.02000n      0.       
  165.03000n      0.       
  165.04000n      0.       
  165.05000n      0.       
  165.06000n      0.       
  165.07000n      0.       
  165.08000n      0.       
  165.09000n      0.       
  165.10000n      0.       
  165.11000n      0.       
  165.12000n      0.       
  165.13000n      0.       
  165.14000n      0.       
  165.15000n      0.       
  165.16000n      0.       
  165.17000n      0.       
  165.18000n      0.       
  165.19000n      0.       
  165.20000n      0.       
  165.21000n      0.       
  165.22000n      0.       
  165.23000n      0.       
  165.24000n      0.       
  165.25000n      0.       
  165.26000n      0.       
  165.27000n      0.       
  165.28000n      0.       
  165.29000n      0.       
  165.30000n      0.       
  165.31000n      0.       
  165.32000n      0.       
  165.33000n      0.       
  165.34000n      0.       
  165.35000n      0.       
  165.36000n      0.       
  165.37000n      0.       
  165.38000n      0.       
  165.39000n      0.       
  165.40000n      0.       
  165.41000n      0.       
  165.42000n      0.       
  165.43000n      0.       
  165.44000n      0.       
  165.45000n      0.       
  165.46000n      0.       
  165.47000n      0.       
  165.48000n      0.       
  165.49000n      0.       
  165.50000n      0.       
  165.51000n      0.       
  165.52000n      0.       
  165.53000n      0.       
  165.54000n      0.       
  165.55000n      0.       
  165.56000n      0.       
  165.57000n      0.       
  165.58000n      0.       
  165.59000n      0.       
  165.60000n      0.       
  165.61000n      0.       
  165.62000n      0.       
  165.63000n      0.       
  165.64000n      0.       
  165.65000n      0.       
  165.66000n      0.       
  165.67000n      0.       
  165.68000n      0.       
  165.69000n      0.       
  165.70000n      0.       
  165.71000n      0.       
  165.72000n      0.       
  165.73000n      0.       
  165.74000n      0.       
  165.75000n      0.       
  165.76000n      0.       
  165.77000n      0.       
  165.78000n      0.       
  165.79000n      0.       
  165.80000n      0.       
  165.81000n      0.       
  165.82000n      0.       
  165.83000n      0.       
  165.84000n      0.       
  165.85000n      0.       
  165.86000n      0.       
  165.87000n      0.       
  165.88000n      0.       
  165.89000n      0.       
  165.90000n      0.       
  165.91000n      0.       
  165.92000n      0.       
  165.93000n      0.       
  165.94000n      0.       
  165.95000n      0.       
  165.96000n      0.       
  165.97000n      0.       
  165.98000n      0.       
  165.99000n      0.       
  166.00000n      0.       
  166.01000n      0.       
  166.02000n      0.       
  166.03000n      0.       
  166.04000n      0.       
  166.05000n      0.       
  166.06000n      0.       
  166.07000n      0.       
  166.08000n      0.       
  166.09000n      0.       
  166.10000n      0.       
  166.11000n      0.       
  166.12000n      0.       
  166.13000n      0.       
  166.14000n      0.       
  166.15000n      0.       
  166.16000n      0.       
  166.17000n      0.       
  166.18000n      0.       
  166.19000n      0.       
  166.20000n      0.       
  166.21000n      0.       
  166.22000n      0.       
  166.23000n      0.       
  166.24000n      0.       
  166.25000n      0.       
  166.26000n      0.       
  166.27000n      0.       
  166.28000n      0.       
  166.29000n      0.       
  166.30000n      0.       
  166.31000n      0.       
  166.32000n      0.       
  166.33000n      0.       
  166.34000n      0.       
  166.35000n      0.       
  166.36000n      0.       
  166.37000n      0.       
  166.38000n      0.       
  166.39000n      0.       
  166.40000n      0.       
  166.41000n      0.       
  166.42000n      0.       
  166.43000n      0.       
  166.44000n      0.       
  166.45000n      0.       
  166.46000n      0.       
  166.47000n      0.       
  166.48000n      0.       
  166.49000n      0.       
  166.50000n      0.       
  166.51000n      0.       
  166.52000n      0.       
  166.53000n      0.       
  166.54000n      0.       
  166.55000n      0.       
  166.56000n      0.       
  166.57000n      0.       
  166.58000n      0.       
  166.59000n      0.       
  166.60000n      0.       
  166.61000n      0.       
  166.62000n      0.       
  166.63000n      0.       
  166.64000n      0.       
  166.65000n      0.       
  166.66000n      0.       
  166.67000n      0.       
  166.68000n      0.       
  166.69000n      0.       
  166.70000n      0.       
  166.71000n      0.       
  166.72000n      0.       
  166.73000n      0.       
  166.74000n      0.       
  166.75000n      0.       
  166.76000n      0.       
  166.77000n      0.       
  166.78000n      0.       
  166.79000n      0.       
  166.80000n      0.       
  166.81000n      0.       
  166.82000n      0.       
  166.83000n      0.       
  166.84000n      0.       
  166.85000n      0.       
  166.86000n      0.       
  166.87000n      0.       
  166.88000n      0.       
  166.89000n      0.       
  166.90000n      0.       
  166.91000n      0.       
  166.92000n      0.       
  166.93000n      0.       
  166.94000n      0.       
  166.95000n      0.       
  166.96000n      0.       
  166.97000n      0.       
  166.98000n      0.       
  166.99000n      0.       
  167.00000n      0.       
  167.01000n      0.       
  167.02000n      0.       
  167.03000n      0.       
  167.04000n      0.       
  167.05000n      0.       
  167.06000n      0.       
  167.07000n      0.       
  167.08000n      0.       
  167.09000n      0.       
  167.10000n      0.       
  167.11000n      0.       
  167.12000n      0.       
  167.13000n      0.       
  167.14000n      0.       
  167.15000n      0.       
  167.16000n      0.       
  167.17000n      0.       
  167.18000n      0.       
  167.19000n      0.       
  167.20000n      0.       
  167.21000n      0.       
  167.22000n      0.       
  167.23000n      0.       
  167.24000n      0.       
  167.25000n      0.       
  167.26000n      0.       
  167.27000n      0.       
  167.28000n      0.       
  167.29000n      0.       
  167.30000n      0.       
  167.31000n      0.       
  167.32000n      0.       
  167.33000n      0.       
  167.34000n      0.       
  167.35000n      0.       
  167.36000n      0.       
  167.37000n      0.       
  167.38000n      0.       
  167.39000n      0.       
  167.40000n      0.       
  167.41000n      0.       
  167.42000n      0.       
  167.43000n      0.       
  167.44000n      0.       
  167.45000n      0.       
  167.46000n      0.       
  167.47000n      0.       
  167.48000n      0.       
  167.49000n      0.       
  167.50000n      0.       
  167.51000n      0.       
  167.52000n      0.       
  167.53000n      0.       
  167.54000n      0.       
  167.55000n      0.       
  167.56000n      0.       
  167.57000n      0.       
  167.58000n      0.       
  167.59000n      0.       
  167.60000n      0.       
  167.61000n      0.       
  167.62000n      0.       
  167.63000n      0.       
  167.64000n      0.       
  167.65000n      0.       
  167.66000n      0.       
  167.67000n      0.       
  167.68000n      0.       
  167.69000n      0.       
  167.70000n      0.       
  167.71000n      0.       
  167.72000n      0.       
  167.73000n      0.       
  167.74000n      0.       
  167.75000n      0.       
  167.76000n      0.       
  167.77000n      0.       
  167.78000n      0.       
  167.79000n      0.       
  167.80000n      0.       
  167.81000n      0.       
  167.82000n      0.       
  167.83000n      0.       
  167.84000n      0.       
  167.85000n      0.       
  167.86000n      0.       
  167.87000n      0.       
  167.88000n      0.       
  167.89000n      0.       
  167.90000n      0.       
  167.91000n      0.       
  167.92000n      0.       
  167.93000n      0.       
  167.94000n      0.       
  167.95000n      0.       
  167.96000n      0.       
  167.97000n      0.       
  167.98000n      0.       
  167.99000n      0.       
  168.00000n      0.       
  168.01000n      0.       
  168.02000n      0.       
  168.03000n      0.       
  168.04000n      0.       
  168.05000n      0.       
  168.06000n      0.       
  168.07000n      0.       
  168.08000n      0.       
  168.09000n      0.       
  168.10000n      0.       
  168.11000n      0.       
  168.12000n      0.       
  168.13000n      0.       
  168.14000n      0.       
  168.15000n      0.       
  168.16000n      0.       
  168.17000n      0.       
  168.18000n      0.       
  168.19000n      0.       
  168.20000n      0.       
  168.21000n      0.       
  168.22000n      0.       
  168.23000n      0.       
  168.24000n      0.       
  168.25000n      0.       
  168.26000n      0.       
  168.27000n      0.       
  168.28000n      0.       
  168.29000n      0.       
  168.30000n      0.       
  168.31000n      0.       
  168.32000n      0.       
  168.33000n      0.       
  168.34000n      0.       
  168.35000n      0.       
  168.36000n      0.       
  168.37000n      0.       
  168.38000n      0.       
  168.39000n      0.       
  168.40000n      0.       
  168.41000n      0.       
  168.42000n      0.       
  168.43000n      0.       
  168.44000n      0.       
  168.45000n      0.       
  168.46000n      0.       
  168.47000n      0.       
  168.48000n      0.       
  168.49000n      0.       
  168.50000n      0.       
  168.51000n      0.       
  168.52000n      0.       
  168.53000n      0.       
  168.54000n      0.       
  168.55000n      0.       
  168.56000n      0.       
  168.57000n      0.       
  168.58000n      0.       
  168.59000n      0.       
  168.60000n      0.       
  168.61000n      0.       
  168.62000n      0.       
  168.63000n      0.       
  168.64000n      0.       
  168.65000n      0.       
  168.66000n      0.       
  168.67000n      0.       
  168.68000n      0.       
  168.69000n      0.       
  168.70000n      0.       
  168.71000n      0.       
  168.72000n      0.       
  168.73000n      0.       
  168.74000n      0.       
  168.75000n      0.       
  168.76000n      0.       
  168.77000n      0.       
  168.78000n      0.       
  168.79000n      0.       
  168.80000n      0.       
  168.81000n      0.       
  168.82000n      0.       
  168.83000n      0.       
  168.84000n      0.       
  168.85000n      0.       
  168.86000n      0.       
  168.87000n      0.       
  168.88000n      0.       
  168.89000n      0.       
  168.90000n      0.       
  168.91000n      0.       
  168.92000n      0.       
  168.93000n      0.       
  168.94000n      0.       
  168.95000n      0.       
  168.96000n      0.       
  168.97000n      0.       
  168.98000n      0.       
  168.99000n      0.       
  169.00000n      0.       
  169.01000n      0.       
  169.02000n      0.       
  169.03000n      0.       
  169.04000n      0.       
  169.05000n      0.       
  169.06000n      0.       
  169.07000n      0.       
  169.08000n      0.       
  169.09000n      0.       
  169.10000n      0.       
  169.11000n      0.       
  169.12000n      0.       
  169.13000n      0.       
  169.14000n      0.       
  169.15000n      0.       
  169.16000n      0.       
  169.17000n      0.       
  169.18000n      0.       
  169.19000n      0.       
  169.20000n      0.       
  169.21000n      0.       
  169.22000n      0.       
  169.23000n      0.       
  169.24000n      0.       
  169.25000n      0.       
  169.26000n      0.       
  169.27000n      0.       
  169.28000n      0.       
  169.29000n      0.       
  169.30000n      0.       
  169.31000n      0.       
  169.32000n      0.       
  169.33000n      0.       
  169.34000n      0.       
  169.35000n      0.       
  169.36000n      0.       
  169.37000n      0.       
  169.38000n      0.       
  169.39000n      0.       
  169.40000n      0.       
  169.41000n      0.       
  169.42000n      0.       
  169.43000n      0.       
  169.44000n      0.       
  169.45000n      0.       
  169.46000n      0.       
  169.47000n      0.       
  169.48000n      0.       
  169.49000n      0.       
  169.50000n      0.       
  169.51000n      0.       
  169.52000n      0.       
  169.53000n      0.       
  169.54000n      0.       
  169.55000n      0.       
  169.56000n      0.       
  169.57000n      0.       
  169.58000n      0.       
  169.59000n      0.       
  169.60000n      0.       
  169.61000n      0.       
  169.62000n      0.       
  169.63000n      0.       
  169.64000n      0.       
  169.65000n      0.       
  169.66000n      0.       
  169.67000n      0.       
  169.68000n      0.       
  169.69000n      0.       
  169.70000n      0.       
  169.71000n      0.       
  169.72000n      0.       
  169.73000n      0.       
  169.74000n      0.       
  169.75000n      0.       
  169.76000n      0.       
  169.77000n      0.       
  169.78000n      0.       
  169.79000n      0.       
  169.80000n      0.       
  169.81000n      0.       
  169.82000n      0.       
  169.83000n      0.       
  169.84000n      0.       
  169.85000n      0.       
  169.86000n      0.       
  169.87000n      0.       
  169.88000n      0.       
  169.89000n      0.       
  169.90000n      0.       
  169.91000n      0.       
  169.92000n      0.       
  169.93000n      0.       
  169.94000n      0.       
  169.95000n      0.       
  169.96000n      0.       
  169.97000n      0.       
  169.98000n      0.       
  169.99000n      0.       
  170.00000n      0.       
y

          ***** job concluded
1****** HSPICE -- D-2010.03-SP1 32-BIT (May 26 2010) winnt ******               
 ******  
 first line of the netlist must be blank.

  ******  job statistics summary tnom=  25.000 temp= 100.000 *****

  ******  HSPICE Threads Information  ******

  Command Line Threads Count                  :     1
  Available CPU Count                         :     4
  Actual Model Evaluation(Load) Threads Count :     1
  Actual Solver Threads Count                 :     1


  ******  Circuit Statistics  ******
  # nodes       =      65 # elements   =      28
  # resistors   =       0 # capacitors =       0 # inductors   =       0
  # mutual_inds =       0 # vccs       =       0 # vcvs        =       0
  # cccs        =       0 # ccvs       =       0 # volt_srcs   =       4
  # curr_srcs   =       0 # diodes     =       0 # bjts        =       0
  # jfets       =       0 # mosfets    =      24 # U elements  =       0
  # T elements  =       0 # W elements =       0 # B elements  =       0
  # S elements  =       0 # P elements =       0 # va device   =       0


  ******  Runtime Statistics (seconds)  ******

  analysis           time    # points   tot. iter  conv.iter
  op point           0.01           1          19
  transient          0.34       17001        4701        1585 rev=        76
  readin             0.13
  errchk             0.02
  setup              0.01
  output             0.07


           total memory used          654  kbytes
           total cpu time            0.59 seconds
           total elapsed time        0.64 seconds
           job started at     15:22:38 12/02/2014
           job ended   at     15:22:38 12/02/2014


  lic: Release hspice token(s) 
