 ****** HSPICE -- D-2010.03-SP1 32-BIT (May 26 2010) winnt ******               
  Copyright (C) 2010 Synopsys, Inc. All Rights Reserved.                        
  Unpublished-rights reserved under US copyright laws.
  This program is protected by law and is subject to the 
  terms and conditions of the license agreement from Synopsys.
  Use of this program is your acceptance to be bound by the 
  license agreement. HSPICE is the trademark of Synopsys, Inc.
  Input File: d:\digital electronic\projects\ca_1\question_1_parts_a_b_beta_10\q
  lic:  
  lic: FLEXlm: v8.5b 
  lic: USER:   HP                   HOSTNAME: ProBook 
  lic: HOSTID: "00090faa0001 56db30007c95 16db30007c95 a4db30007c95 a45d36cb5ab9
  
  lic: Using FLEXlm license file: 
  lic: 27000@elena 
  lic: Checkout 1 hspice 
  lic: License/Maintenance for hspice will expire on 31-dec-2020/2007.9 
  lic: NODE LOCKED license on hostid "00090faa0001 56db30007c95 16db30007c95 a4d
 b
  lic:   
 Init: read install configuration file: C:\synopsys\Hspice_D-2010.03-SP1\meta.cfg
1****** HSPICE -- D-2010.03-SP1 32-BIT (May 26 2010) winnt ******               
 ******  
 first line of the netlist must be blank.

  ******  mos   model parameters tnom=  25.000 temp=  25.000 *****
 
Model Name: nmos  

 BSIM4 Model (Level 54)

    MOBMOD = 0
    BINUNIT = 1
    PARAMCHK = 1
    CAPMOD = 2
    DIOMOD = 1
    RDSMOD = 0
    TRNQSMOD = 0
    ACNQSMOD = 0
    RBODYMOD = 1
    RGATEMOD = 1
    PERMOD = 1
    GEOMOD = 1
    RGEOMOD = 0
    FNOIMOD = 1
    TNOIMOD = 0
    IGCMOD = 1
    IGBMOD = 1
    STIMOD = 0
    VERSION =      4 
    TOXREF = 1.75e-009 
    TOXE = 1.75e-009 
    TOXP = 1.1e-009 
    TOXM = 1.75e-009 
    DTOX = 6.5e-010 
    EPSROX =    3.9 
    CDSC =      0 
    CDSCB =      0 
    CDSCD =      0 
    CIT =      0 
    NFACTOR =    2.1 
    XJ = 1.4e-008 
    VSAT = 1.474e+005 
    A0 =      1 
    AGS = 1e-020 
    A1 =      0 
    A2 =      1 
    AT = 3.3e+004 
    KETA =   0.04 
    NSUB = 6e+016 
    NDEP = 3.28e+018 
    NSD = 2e+020 
    NGATE = 2e+020 
    GAMMA1 =      0 
    GAMMA2 =      0 
    VBX =      0 
    VBM =     -3 
    XT = 1.55e-007 
    K1 =  0.528 
    KT1 =  -0.11 
    KT1L =      0 
    KT2 =  0.022 
    K2 =   0.01 
    K3 =      0 
    K3B =      0 
    LPE0 =      0 
    LPEB =      0 
    DVTP0 = 1e-009 
    DVTP1 =    0.1 
    W0 = 2.5e-006 
    DVT0 =      1 
    DVT1 =      2 
    DVT2 = -0.032 
    DVT0W =      0 
    DVT1W =      0 
    DVT2W =      0 
    DROUT =    0.5 
    DSUB =    0.1 
    VTH0 =  0.469 
    EU =   1.67 
    UA = 6e-010 
    UA1 = 4.31e-009 
    UB = 1.2e-018 
    UB1 = 7.61e-018 
    UC =      0 
    UC1 = -5.6e-011 
    U0 = 0.04372 
    UTE =   -1.5 
    VOFF =  -0.13 
    VOFFL =      0 
    MINV =   0.05 
    FPROUT =    0.2 
    PDITS =   0.08 
    PDITSD =   0.23 
    PDITSL = 2.3e+006 
    DELTA =   0.01 
    RDSW =    155 
    RDSWMIN =      0 
    RDWMIN =      0 
    RSWMIN =      0 
    RDW =     85 
    RSW =     85 
    PRWG =      0 
    PRWB = 6.8e-011 
    PRT =      0 
    ETA0 = 0.0049 
    ETAB =      0 
    PCLM =   0.04 
    PDIBLC1 =  0.001 
    PDIBLC2 =  0.001 
    PDIBLCB = -0.005 
    PSCBE1 = 8.14e+008 
    PSCBE2 = 1e-007 
    PVAG = 1e-020 
    WR =      1 
    DWG =      0 
    DWB =      0 
    XW =      0 
    XWREF =      0 
    XL = -2e-008 
    XLREF = -2e-008 
    B0 =      0 
    B1 =      0 
    ALPHA0 =  0.074 
    ALPHA1 =  0.005 
    AGIDL = 0.0002 
    BGIDL = 2.1e+009 
    CGIDL = 0.0002 
    PHIN =      0 
    EGIDL =    0.8 
    AIGC =  0.012 
    BIGC = 0.0028 
    CIGC =  0.002 
    AIGSD =  0.012 
    BIGSD = 0.0028 
    CIGSD =  0.002 
    AIGBACC =  0.012 
    BIGBACC = 0.0028 
    CIGBACC =  0.002 
    AIGBINV =  0.014 
    BIGBINV =  0.004 
    CIGBINV =  0.004 
    NIGC =      1 
    NIGBINV =      3 
    NIGBACC =      1 
    NTOX =      1 
    EIGBINV =    1.1 
    PIGCD =      1 
    POXEDGE =      1 
    XRCRG1 =     12 
    TNOIA =    1.5 
    TNOIB =    3.5 
    NTNOI =      1 
    XRCRG2 =      5 
    BETA0 =     30 
    IJTHDFWD =   0.01 
    IJTHSFWD =   0.01 
    IJTHDREV =  0.001 
    IJTHSREV =  0.001 
    XJBVD =      1 
    XJBVS =      1 
    BVD =     10 
    BVS =     10 
    VFB =  -0.55 
    GBMIN = 1e-010 
    RBDB =     15 
    RBPB =      5 
    RBSB =     15 
    RBPS =     15 
    RBPD =     15 
    CGSL = 2.653e-010 
    CGDL = 2.653e-010 
    CKAPPAS =   0.03 
    CKAPPAD =   0.03 
    CF = 1.195e-010 
    CLC = 1e-007 
    CLE =    0.6 
    DWC = 5e-009 
    DLC = 3.75e-009 
    DLCIG = 3.75e-009 
    DWJ =      0 
    VFBCV =     -1 
    ACDE =      1 
    MOIN =     15 
    NOFF =    0.9 
    VOFFCV =   0.02 
    DMCG =      0 
    DMCI =      0 
    DMDG =      0 
    DMCGT =      0 
    XGW =      0 
    XGL =      0 
    RSHG =    0.4 
    NGCON =      1 
    TCJ =  0.001 
    TPB =  0.005 
    TCJSW =  0.001 
    TPBSW =  0.005 
    TCJSWG =  0.001 
    TPBSWG =  0.005 
    SK0 =      0 
    SK1 =      0 
    SK2 =      0 
    SL = 2e-006 
    SW = 2e-006 
    K =      0 
    TNOM =  300.1 
    CGSO = 1.1e-010 
    CGDO = 1.1e-010 
    CGBO = 2.56e-011 
    XPART =      0 
    RSH =      5 
    JSS = 0.0001 
    JSWS = 1e-011 
    JSWGS = 1e-010 
    PBS =      1 
    MJS =    0.5 
    PBSWS =      1 
    MJSWS =   0.33 
    CJS = 0.0005 
    CJSWS = 5e-010 
    NJS =      1 
    PBSWGS =      1 
    MJSWGS =   0.33 
    CJSWGS = 3e-010 
    XTIS =      3 
    JSD = 0.0001 
    JSWD = 1e-011 
    JSWGD = 1e-010 
    PBD =      1 
    MJD =    0.5 
    PBSWD =      1 
    MJSWD =   0.33 
    CJD = 0.0005 
    CJSWD = 5e-010 
    NJD =      1 
    PBSWGD =      1 
    MJSWGD =   0.33 
    CJSWGD = 5e-010 
    XTID =      3 
    LMLT =      1 
    WMLT =      1 
    LINT = 3.75e-009 
    LL =      0 
    LLC =      0 
    LLN =      1 
    LW =      0 
    LWC =      0 
    LWN =      1 
    LWL =      0 
    LWLC =      0 
    LMIN =      0 
    LMAX =      1 
    WINT = 5e-009 
    WL =      0 
    WLC =      0 
    WLN =      1 
    WW =      0 
    WWC =      0 
    WWN =      1 
    WWL =      0 
    WWLC =      0 
    WMIN =      0 
    WMAX =      1 
    NOIA = 6.25e+041 
    NOIB = 3.125e+026 
    NOIC = 8.75e+009 
    EM = 4.1e+007 
    EF =      1 
    AF =      1 
    KF =      0 
    TRS =      0 
    TRD =      0 
 

 
Model Name: pmos  

 BSIM4 Model (Level 54)

    MOBMOD = 0
    BINUNIT = 1
    PARAMCHK = 1
    CAPMOD = 2
    DIOMOD = 1
    RDSMOD = 0
    TRNQSMOD = 0
    ACNQSMOD = 0
    RBODYMOD = 1
    RGATEMOD = 1
    PERMOD = 1
    GEOMOD = 1
    RGEOMOD = 0
    FNOIMOD = 1
    TNOIMOD = 0
    IGCMOD = 1
    IGBMOD = 1
    STIMOD = 0
    VERSION =      4 
    TOXREF = 1.85e-009 
    TOXE = 1.85e-009 
    TOXP = 1.1e-009 
    TOXM = 1.85e-009 
    DTOX = 7.5e-010 
    EPSROX =    3.9 
    CDSC =      0 
    CDSCB =      0 
    CDSCD =      0 
    CIT =      0 
    NFACTOR =    2.1 
    XJ = 1.4e-008 
    VSAT = 7e+004 
    A0 =      1 
    AGS = 1e-020 
    A1 =      0 
    A2 =      1 
    AT = 3.3e+004 
    KETA = -0.047 
    NSUB = 6e+016 
    NDEP = 2.5e+018 
    NSD = 2e+020 
    NGATE = 2e+020 
    GAMMA1 =      0 
    GAMMA2 =      0 
    VBX =      0 
    VBM =     -3 
    XT = 1.55e-007 
    K1 =  0.488 
    KT1 =  -0.11 
    KT1L =      0 
    KT2 =  0.022 
    K2 =  -0.01 
    K3 =      0 
    K3B =      0 
    LPE0 =      0 
    LPEB =      0 
    DVTP0 = 1e-009 
    DVTP1 =   0.05 
    W0 = 2.5e-006 
    DVT0 =      1 
    DVT1 =      2 
    DVT2 = -0.032 
    DVT0W =      0 
    DVT1W =      0 
    DVT2W =      0 
    DROUT =   0.56 
    DSUB =    0.1 
    VTH0 = -0.418 
    EU =      1 
    UA = 2e-009 
    UA1 = 4.31e-009 
    UB = 5e-019 
    UB1 = 7.61e-018 
    UC =      0 
    UC1 = -5.6e-011 
    U0 = 0.00439 
    UTE =   -1.5 
    VOFF = -0.126 
    VOFFL =      0 
    MINV =   0.05 
    FPROUT =    0.2 
    PDITS =   0.08 
    PDITSD =   0.23 
    PDITSL = 2.3e+006 
    DELTA =   0.01 
    RDSW =    155 
    RDSWMIN =      0 
    RDWMIN =      0 
    RSWMIN =      0 
    RDW =     85 
    RSW =     85 
    PRWG = 3.22e-008 
    PRWB = 6.8e-011 
    PRT =      0 
    ETA0 = 0.0049 
    ETAB =      0 
    PCLM =   0.12 
    PDIBLC1 =  0.001 
    PDIBLC2 =  0.001 
    PDIBLCB = 3.4e-008 
    PSCBE1 = 8.14e+008 
    PSCBE2 = 9.58e-007 
    PVAG = 1e-020 
    WR =      1 
    DWG =      0 
    DWB =      0 
    XW =      0 
    XWREF =      0 
    XL = -2e-008 
    XLREF = -2e-008 
    B0 = -1e-020 
    B1 =      0 
    ALPHA0 =  0.074 
    ALPHA1 =  0.005 
    AGIDL = 0.0002 
    BGIDL = 2.1e+009 
    CGIDL = 0.0002 
    PHIN =      0 
    EGIDL =    0.8 
    AIGC =   0.69 
    BIGC = 0.0012 
    CIGC = 0.0008 
    AIGSD = 0.0087 
    BIGSD = 0.0012 
    CIGSD = 0.0008 
    AIGBACC =  0.012 
    BIGBACC = 0.0028 
    CIGBACC =  0.002 
    AIGBINV =  0.014 
    BIGBINV =  0.004 
    CIGBINV =  0.004 
    NIGC =      1 
    NIGBINV =      3 
    NIGBACC =      1 
    NTOX =      1 
    EIGBINV =    1.1 
    PIGCD =      1 
    POXEDGE =      1 
    XRCRG1 =     12 
    TNOIA =    1.5 
    TNOIB =    3.5 
    NTNOI =      1 
    XRCRG2 =      5 
    BETA0 =     30 
    IJTHDFWD =   0.01 
    IJTHSFWD =   0.01 
    IJTHDREV =  0.001 
    IJTHSREV =  0.001 
    XJBVD =      1 
    XJBVS =      1 
    BVD =     10 
    BVS =     10 
    VFB =   0.55 
    GBMIN = 1e-010 
    RBDB =     15 
    RBPB =      5 
    RBSB =     15 
    RBPS =     15 
    RBPD =     15 
    CGSL = 2.653e-010 
    CGDL = 2.653e-010 
    CKAPPAS =   0.03 
    CKAPPAD =   0.03 
    CF = 1.183e-010 
    CLC = 1e-007 
    CLE =    0.6 
    DWC = 5e-009 
    DLC = 3.75e-009 
    DLCIG = 3.75e-009 
    DWJ =      0 
    VFBCV =     -1 
    ACDE =      1 
    MOIN =     15 
    NOFF =    0.9 
    VOFFCV =   0.02 
    DMCG =      0 
    DMCI =      0 
    DMDG =      0 
    DMCGT =      0 
    XGW =      0 
    XGL =      0 
    RSHG =    0.4 
    NGCON =      1 
    TCJ =  0.001 
    TPB =  0.005 
    TCJSW =  0.001 
    TPBSW =  0.005 
    TCJSWG =  0.001 
    TPBSWG =  0.005 
    SK0 =      0 
    SK1 =      0 
    SK2 =      0 
    SL = 2e-006 
    SW = 2e-006 
    K =      0 
    TNOM =  300.1 
    CGSO = 1.1e-010 
    CGDO = 1.1e-010 
    CGBO = 2.56e-011 
    XPART =      0 
    RSH =      5 
    JSS = 0.0001 
    JSWS = 1e-011 
    JSWGS = 1e-010 
    PBS =      1 
    MJS =    0.5 
    PBSWS =      1 
    MJSWS =   0.33 
    CJS = 0.0005 
    CJSWS = 5e-010 
    NJS =      1 
    PBSWGS =      1 
    MJSWGS =   0.33 
    CJSWGS = 3e-010 
    XTIS =      3 
    JSD = 0.0001 
    JSWD = 1e-011 
    JSWGD = 1e-010 
    PBD =      1 
    MJD =    0.5 
    PBSWD =      1 
    MJSWD =   0.33 
    CJD = 0.0005 
    CJSWD = 5e-010 
    NJD =      1 
    PBSWGD =      1 
    MJSWGD =   0.33 
    CJSWGD = 5e-010 
    XTID =      3 
    LMLT =      1 
    WMLT =      1 
    LINT = 3.75e-009 
    LL =      0 
    LLC =      0 
    LLN =      1 
    LW =      0 
    LWC =      0 
    LWN =      1 
    LWL =      0 
    LWLC =      0 
    LMIN =      0 
    LMAX =      1 
    WINT = 5e-009 
    WL =      0 
    WLC =      0 
    WLN =      1 
    WW =      0 
    WWC =      0 
    WWN =      1 
    WWL =      0 
    WWLC =      0 
    WMIN =      0 
    WMAX =      1 
    NOIA = 6.188e+040 
    NOIB = 1.5e+025 
    NOIC = 8.75e+009 
    EM = 4.1e+007 
    EF =      1 
    AF =      1 
    KF =      0 
    TRS =      0 
    TRD =      0 
 

 Warning:  Acde = 1 may be too small in BSIM4 model nmos with w=9e-008 l=4.5e-008.

 Warning: (B1 + Weff) may be too small in BSIM4 model nmos with w=9e-008 l=4.5e-008.

 Warning:  Acde = 1 may be too small in BSIM4 model pmos with w=9e-007 l=4.5e-008.

 
      
 *****************************************************************
 ******  option summary
 ******
 runlvl  = 3         bypass  = 2         
 Warning:  Acde = 1 may be too small in BSIM4 model nmos with w=9e-008 l=4.5e-008.

 Warning: (B1 + Weff) may be too small in BSIM4 model nmos with w=9e-008 l=4.5e-008.

 Warning:  Acde = 1 may be too small in BSIM4 model pmos with w=9e-007 l=4.5e-008.

 ******  
 first line of the netlist must be blank.

  ******  dc transfer curves tnom=  25.000 temp=  27.000 *****
x

        volt    voltage    
                    out    
   10.00000m    999.9902m  
   11.00000m    999.9900m  
   12.00000m    999.9898m  
   13.00000m    999.9895m  
   14.00000m    999.9893m  
   15.00000m    999.9890m  
   16.00000m    999.9887m  
   17.00000m    999.9885m  
   18.00000m    999.9882m  
   19.00000m    999.9879m  
   20.00000m    999.9876m  
   21.00000m    999.9873m  
   22.00000m    999.9870m  
   23.00000m    999.9867m  
   24.00000m    999.9864m  
   25.00000m    999.9860m  
   26.00000m    999.9857m  
   27.00000m    999.9854m  
   28.00000m    999.9850m  
   29.00000m    999.9846m  
   30.00000m    999.9843m  
   31.00000m    999.9839m  
   32.00000m    999.9835m  
   33.00000m    999.9831m  
   34.00000m    999.9827m  
   35.00000m    999.9823m  
   36.00000m    999.9818m  
   37.00000m    999.9814m  
   38.00000m    999.9809m  
   39.00000m    999.9805m  
   40.00000m    999.9800m  
   41.00000m    999.9795m  
   42.00000m    999.9790m  
   43.00000m    999.9785m  
   44.00000m    999.9780m  
   45.00000m    999.9774m  
   46.00000m    999.9769m  
   47.00000m    999.9763m  
   48.00000m    999.9757m  
   49.00000m    999.9751m  
   50.00000m    999.9745m  
   51.00000m    999.9739m  
   52.00000m    999.9733m  
   53.00000m    999.9726m  
   54.00000m    999.9720m  
   55.00000m    999.9713m  
   56.00000m    999.9706m  
   57.00000m    999.9699m  
   58.00000m    999.9691m  
   59.00000m    999.9684m  
   60.00000m    999.9676m  
   61.00000m    999.9668m  
   62.00000m    999.9660m  
   63.00000m    999.9652m  
   64.00000m    999.9643m  
   65.00000m    999.9635m  
   66.00000m    999.9626m  
   67.00000m    999.9617m  
   68.00000m    999.9607m  
   69.00000m    999.9598m  
   70.00000m    999.9588m  
   71.00000m    999.9578m  
   72.00000m    999.9568m  
   73.00000m    999.9557m  
   74.00000m    999.9547m  
   75.00000m    999.9536m  
   76.00000m    999.9524m  
   77.00000m    999.9513m  
   78.00000m    999.9501m  
   79.00000m    999.9489m  
   80.00000m    999.9477m  
   81.00000m    999.9464m  
   82.00000m    999.9451m  
   83.00000m    999.9438m  
   84.00000m    999.9424m  
   85.00000m    999.9410m  
   86.00000m    999.9396m  
   87.00000m    999.9381m  
   88.00000m    999.9366m  
   89.00000m    999.9351m  
   90.00000m    999.9335m  
   91.00000m    999.9319m  
   92.00000m    999.9303m  
   93.00000m    999.9286m  
   94.00000m    999.9269m  
   95.00000m    999.9252m  
   96.00000m    999.9234m  
   97.00000m    999.9215m  
   98.00000m    999.9196m  
   99.00000m    999.9177m  
  100.00000m    999.9157m  
  101.00000m    999.9137m  
  102.00000m    999.9116m  
  103.00000m    999.9095m  
  104.00000m    999.9074m  
  105.00000m    999.9052m  
  106.00000m    999.9029m  
  107.00000m    999.9006m  
  108.00000m    999.8982m  
  109.00000m    999.8958m  
  110.00000m    999.8933m  
  111.00000m    999.8907m  
  112.00000m    999.8881m  
  113.00000m    999.8855m  
  114.00000m    999.8828m  
  115.00000m    999.8800m  
  116.00000m    999.8771m  
  117.00000m    999.8742m  
  118.00000m    999.8712m  
  119.00000m    999.8682m  
  120.00000m    999.8651m  
  121.00000m    999.8619m  
  122.00000m    999.8586m  
  123.00000m    999.8553m  
  124.00000m    999.8519m  
  125.00000m    999.8484m  
  126.00000m    999.8448m  
  127.00000m    999.8411m  
  128.00000m    999.8374m  
  129.00000m    999.8336m  
  130.00000m    999.8297m  
  131.00000m    999.8257m  
  132.00000m    999.8216m  
  133.00000m    999.8174m  
  134.00000m    999.8131m  
  135.00000m    999.8087m  
  136.00000m    999.8043m  
  137.00000m    999.7997m  
  138.00000m    999.7950m  
  139.00000m    999.7903m  
  140.00000m    999.7854m  
  141.00000m    999.7804m  
  142.00000m    999.7753m  
  143.00000m    999.7700m  
  144.00000m    999.7647m  
  145.00000m    999.7592m  
  146.00000m    999.7537m  
  147.00000m    999.7480m  
  148.00000m    999.7421m  
  149.00000m    999.7362m  
  150.00000m    999.7301m  
  151.00000m    999.7238m  
  152.00000m    999.7175m  
  153.00000m    999.7110m  
  154.00000m    999.7043m  
  155.00000m    999.6975m  
  156.00000m    999.6906m  
  157.00000m    999.6835m  
  158.00000m    999.6762m  
  159.00000m    999.6688m  
  160.00000m    999.6612m  
  161.00000m    999.6535m  
  162.00000m    999.6456m  
  163.00000m    999.6375m  
  164.00000m    999.6292m  
  165.00000m    999.6208m  
  166.00000m    999.6122m  
  167.00000m    999.6034m  
  168.00000m    999.5944m  
  169.00000m    999.5852m  
  170.00000m    999.5758m  
  171.00000m    999.5662m  
  172.00000m    999.5564m  
  173.00000m    999.5464m  
  174.00000m    999.5361m  
  175.00000m    999.5257m  
  176.00000m    999.5150m  
  177.00000m    999.5041m  
  178.00000m    999.4930m  
  179.00000m    999.4816m  
  180.00000m    999.4700m  
  181.00000m    999.4581m  
  182.00000m    999.4460m  
  183.00000m    999.4337m  
  184.00000m    999.4210m  
  185.00000m    999.4081m  
  186.00000m    999.3949m  
  187.00000m    999.3815m  
  188.00000m    999.3678m  
  189.00000m    999.3537m  
  190.00000m    999.3394m  
  191.00000m    999.3248m  
  192.00000m    999.3099m  
  193.00000m    999.2947m  
  194.00000m    999.2791m  
  195.00000m    999.2632m  
  196.00000m    999.2470m  
  197.00000m    999.2305m  
  198.00000m    999.2136m  
  199.00000m    999.1964m  
  200.00000m    999.1788m  
  201.00000m    999.1608m  
  202.00000m    999.1425m  
  203.00000m    999.1238m  
  204.00000m    999.1047m  
  205.00000m    999.0852m  
  206.00000m    999.0654m  
  207.00000m    999.0451m  
  208.00000m    999.0244m  
  209.00000m    999.0033m  
  210.00000m    998.9817m  
  211.00000m    998.9598m  
  212.00000m    998.9373m  
  213.00000m    998.9145m  
  214.00000m    998.8911m  
  215.00000m    998.8673m  
  216.00000m    998.8430m  
  217.00000m    998.8183m  
  218.00000m    998.7930m  
  219.00000m    998.7672m  
  220.00000m    998.7410m  
  221.00000m    998.7141m  
  222.00000m    998.6868m  
  223.00000m    998.6589m  
  224.00000m    998.6305m  
  225.00000m    998.6015m  
  226.00000m    998.5719m  
  227.00000m    998.5418m  
  228.00000m    998.5110m  
  229.00000m    998.4797m  
  230.00000m    998.4477m  
  231.00000m    998.4152m  
  232.00000m    998.3819m  
  233.00000m    998.3481m  
  234.00000m    998.3136m  
  235.00000m    998.2784m  
  236.00000m    998.2425m  
  237.00000m    998.2060m  
  238.00000m    998.1687m  
  239.00000m    998.1308m  
  240.00000m    998.0921m  
  241.00000m    998.0527m  
  242.00000m    998.0125m  
  243.00000m    997.9715m  
  244.00000m    997.9298m  
  245.00000m    997.8873m  
  246.00000m    997.8440m  
  247.00000m    997.7999m  
  248.00000m    997.7549m  
  249.00000m    997.7091m  
  250.00000m    997.6625m  
  251.00000m    997.6150m  
  252.00000m    997.5666m  
  253.00000m    997.5173m  
  254.00000m    997.4671m  
  255.00000m    997.4159m  
  256.00000m    997.3639m  
  257.00000m    997.3109m  
  258.00000m    997.2569m  
  259.00000m    997.2019m  
  260.00000m    997.1459m  
  261.00000m    997.0889m  
  262.00000m    997.0309m  
  263.00000m    996.9718m  
  264.00000m    996.9116m  
  265.00000m    996.8504m  
  266.00000m    996.7881m  
  267.00000m    996.7247m  
  268.00000m    996.6601m  
  269.00000m    996.5944m  
  270.00000m    996.5275m  
  271.00000m    996.4595m  
  272.00000m    996.3902m  
  273.00000m    996.3198m  
  274.00000m    996.2481m  
  275.00000m    996.1751m  
  276.00000m    996.1009m  
  277.00000m    996.0254m  
  278.00000m    995.9486m  
  279.00000m    995.8705m  
  280.00000m    995.7910m  
  281.00000m    995.7102m  
  282.00000m    995.6279m  
  283.00000m    995.5443m  
  284.00000m    995.4593m  
  285.00000m    995.3728m  
  286.00000m    995.2848m  
  287.00000m    995.1954m  
  288.00000m    995.1045m  
  289.00000m    995.0120m  
  290.00000m    994.9180m  
  291.00000m    994.8224m  
  292.00000m    994.7253m  
  293.00000m    994.6265m  
  294.00000m    994.5262m  
  295.00000m    994.4241m  
  296.00000m    994.3204m  
  297.00000m    994.2150m  
  298.00000m    994.1079m  
  299.00000m    993.9991m  
  300.00000m    993.8885m  
  301.00000m    993.7761m  
  302.00000m    993.6618m  
  303.00000m    993.5458m  
  304.00000m    993.4279m  
  305.00000m    993.3081m  
  306.00000m    993.1865m  
  307.00000m    993.0629m  
  308.00000m    992.9373m  
  309.00000m    992.8098m  
  310.00000m    992.6802m  
  311.00000m    992.5487m  
  312.00000m    992.4150m  
  313.00000m    992.2793m  
  314.00000m    992.1415m  
  315.00000m    992.0016m  
  316.00000m    991.8595m  
  317.00000m    991.7152m  
  318.00000m    991.5687m  
  319.00000m    991.4199m  
  320.00000m    991.2689m  
  321.00000m    991.1156m  
  322.00000m    990.9600m  
  323.00000m    990.8020m  
  324.00000m    990.6416m  
  325.00000m    990.4788m  
  326.00000m    990.3135m  
  327.00000m    990.1458m  
  328.00000m    989.9756m  
  329.00000m    989.8028m  
  330.00000m    989.6275m  
  331.00000m    989.4496m  
  332.00000m    989.2690m  
  333.00000m    989.0858m  
  334.00000m    988.8999m  
  335.00000m    988.7112m  
  336.00000m    988.5198m  
  337.00000m    988.3256m  
  338.00000m    988.1285m  
  339.00000m    987.9286m  
  340.00000m    987.7258m  
  341.00000m    987.5200m  
  342.00000m    987.3113m  
  343.00000m    987.0995m  
  344.00000m    986.8847m  
  345.00000m    986.6668m  
  346.00000m    986.4457m  
  347.00000m    986.2215m  
  348.00000m    985.9941m  
  349.00000m    985.7634m  
  350.00000m    985.5295m  
  351.00000m    985.2922m  
  352.00000m    985.0516m  
  353.00000m    984.8076m  
  354.00000m    984.5601m  
  355.00000m    984.3092m  
  356.00000m    984.0547m  
  357.00000m    983.7966m  
  358.00000m    983.5349m  
  359.00000m    983.2696m  
  360.00000m    983.0005m  
  361.00000m    982.7276m  
  362.00000m    982.4509m  
  363.00000m    982.1704m  
  364.00000m    981.8859m  
  365.00000m    981.5974m  
  366.00000m    981.3049m  
  367.00000m    981.0084m  
  368.00000m    980.7076m  
  369.00000m    980.4027m  
  370.00000m    980.0935m  
  371.00000m    979.7800m  
  372.00000m    979.4621m  
  373.00000m    979.1398m  
  374.00000m    978.8130m  
  375.00000m    978.4816m  
  376.00000m    978.1455m  
  377.00000m    977.8048m  
  378.00000m    977.4592m  
  379.00000m    977.1089m  
  380.00000m    976.7536m  
  381.00000m    976.3933m  
  382.00000m    976.0279m  
  383.00000m    975.6574m  
  384.00000m    975.2817m  
  385.00000m    974.9007m  
  386.00000m    974.5143m  
  387.00000m    974.1224m  
  388.00000m    973.7250m  
  389.00000m    973.3219m  
  390.00000m    972.9131m  
  391.00000m    972.4984m  
  392.00000m    972.0779m  
  393.00000m    971.6513m  
  394.00000m    971.2185m  
  395.00000m    970.7796m  
  396.00000m    970.3343m  
  397.00000m    969.8826m  
  398.00000m    969.4243m  
  399.00000m    968.9593m  
  400.00000m    968.4876m  
  401.00000m    968.0090m  
  402.00000m    967.5233m  
  403.00000m    967.0305m  
  404.00000m    966.5304m  
  405.00000m    966.0228m  
  406.00000m    965.5077m  
  407.00000m    964.9850m  
  408.00000m    964.4543m  
  409.00000m    963.9157m  
  410.00000m    963.3689m  
  411.00000m    962.8138m  
  412.00000m    962.2502m  
  413.00000m    961.6780m  
  414.00000m    961.0970m  
  415.00000m    960.5070m  
  416.00000m    959.9077m  
  417.00000m    959.2992m  
  418.00000m    958.6810m  
  419.00000m    958.0531m  
  420.00000m    957.4151m  
  421.00000m    956.7670m  
  422.00000m    956.1085m  
  423.00000m    955.4393m  
  424.00000m    954.7592m  
  425.00000m    954.0679m  
  426.00000m    953.3653m  
  427.00000m    952.6509m  
  428.00000m    951.9247m  
  429.00000m    951.1862m  
  430.00000m    950.4352m  
  431.00000m    949.6713m  
  432.00000m    948.8943m  
  433.00000m    948.1039m  
  434.00000m    947.2996m  
  435.00000m    946.4811m  
  436.00000m    945.6481m  
  437.00000m    944.8001m  
  438.00000m    943.9369m  
  439.00000m    943.0579m  
  440.00000m    942.1627m  
  441.00000m    941.2509m  
  442.00000m    940.3219m  
  443.00000m    939.3754m  
  444.00000m    938.4108m  
  445.00000m    937.4276m  
  446.00000m    936.4251m  
  447.00000m    935.4029m  
  448.00000m    934.3603m  
  449.00000m    933.2967m  
  450.00000m    932.2113m  
  451.00000m    931.1036m  
  452.00000m    929.9727m  
  453.00000m    928.8179m  
  454.00000m    927.6384m  
  455.00000m    926.4334m  
  456.00000m    925.2018m  
  457.00000m    923.9429m  
  458.00000m    922.6556m  
  459.00000m    921.3388m  
  460.00000m    919.9916m  
  461.00000m    918.6126m  
  462.00000m    917.2008m  
  463.00000m    915.7547m  
  464.00000m    914.2732m  
  465.00000m    912.7547m  
  466.00000m    911.1977m  
  467.00000m    909.6007m  
  468.00000m    907.9620m  
  469.00000m    906.2798m  
  470.00000m    904.5523m  
  471.00000m    902.7775m  
  472.00000m    900.9534m  
  473.00000m    899.0779m  
  474.00000m    897.1487m  
  475.00000m    895.1636m  
  476.00000m    893.1200m  
  477.00000m    891.0155m  
  478.00000m    888.8475m  
  479.00000m    886.6135m  
  480.00000m    884.3108m  
  481.00000m    881.9368m  
  482.00000m    879.4889m  
  483.00000m    876.9647m  
  484.00000m    874.3616m  
  485.00000m    871.6777m  
  486.00000m    868.9110m  
  487.00000m    866.0598m  
  488.00000m    863.1231m  
  489.00000m    860.1000m  
  490.00000m    856.9904m  
  491.00000m    853.7946m  
  492.00000m    850.5134m  
  493.00000m    847.1484m  
  494.00000m    843.7016m  
  495.00000m    840.1754m  
  496.00000m    836.5730m  
  497.00000m    832.8976m  
  498.00000m    829.1528m  
  499.00000m    825.3426m  
  500.00000m    821.4708m  
  501.00000m    817.5413m  
  502.00000m    813.5580m  
  503.00000m    809.5248m  
  504.00000m    805.4452m  
  505.00000m    801.3226m  
  506.00000m    797.1604m  
  507.00000m    792.9615m  
  508.00000m    788.7287m  
  509.00000m    784.4647m  
  510.00000m    780.1718m  
  511.00000m    775.8521m  
  512.00000m    771.5078m  
  513.00000m    767.1406m  
  514.00000m    762.7522m  
  515.00000m    758.3441m  
  516.00000m    753.9177m  
  517.00000m    749.4743m  
  518.00000m    745.0151m  
  519.00000m    740.5411m  
  520.00000m    736.0534m  
  521.00000m    731.5527m  
  522.00000m    727.0400m  
  523.00000m    722.5160m  
  524.00000m    717.9814m  
  525.00000m    713.4368m  
  526.00000m    708.8829m  
  527.00000m    704.3202m  
  528.00000m    699.7492m  
  529.00000m    695.1703m  
  530.00000m    690.5842m  
  531.00000m    685.9910m  
  532.00000m    681.3913m  
  533.00000m    676.7854m  
  534.00000m    672.1736m  
  535.00000m    667.5563m  
  536.00000m    662.9338m  
  537.00000m    658.3063m  
  538.00000m    653.6740m  
  539.00000m    649.0374m  
  540.00000m    644.3965m  
  541.00000m    639.7516m  
  542.00000m    635.1030m  
  543.00000m    630.4508m  
  544.00000m    625.7952m  
  545.00000m    621.1364m  
  546.00000m    616.4746m  
  547.00000m    611.8100m  
  548.00000m    607.1426m  
  549.00000m    602.4727m  
  550.00000m    597.8004m  
  551.00000m    593.1259m  
  552.00000m    588.4492m  
  553.00000m    583.7706m  
  554.00000m    579.0901m  
  555.00000m    574.4078m  
  556.00000m    569.7240m  
  557.00000m    565.0386m  
  558.00000m    560.3518m  
  559.00000m    555.6638m  
  560.00000m    550.9745m  
  561.00000m    546.2843m  
  562.00000m    541.5930m  
  563.00000m    536.9009m  
  564.00000m    532.2080m  
  565.00000m    527.5144m  
  566.00000m    522.8202m  
  567.00000m    518.1256m  
  568.00000m    513.4306m  
  569.00000m    508.7353m  
  570.00000m    504.0398m  
  571.00000m    499.3442m  
  572.00000m    494.6485m  
  573.00000m    489.9530m  
  574.00000m    485.2576m  
  575.00000m    480.5626m  
  576.00000m    475.8678m  
  577.00000m    471.1736m  
  578.00000m    466.4799m  
  579.00000m    461.7869m  
  580.00000m    457.0946m  
  581.00000m    452.4033m  
  582.00000m    447.7129m  
  583.00000m    443.0236m  
  584.00000m    438.3355m  
  585.00000m    433.6487m  
  586.00000m    428.9634m  
  587.00000m    424.2797m  
  588.00000m    419.5976m  
  589.00000m    414.9174m  
  590.00000m    410.2391m  
  591.00000m    405.5630m  
  592.00000m    400.8891m  
  593.00000m    396.2177m  
  594.00000m    391.5488m  
  595.00000m    386.8828m  
  596.00000m    382.2197m  
  597.00000m    377.5597m  
  598.00000m    372.9031m  
  599.00000m    368.2501m  
  600.00000m    363.6009m  
  601.00000m    358.9558m  
  602.00000m    354.3149m  
  603.00000m    349.6787m  
  604.00000m    345.0473m  
  605.00000m    340.4211m  
  606.00000m    335.8005m  
  607.00000m    331.1857m  
  608.00000m    326.5771m  
  609.00000m    321.9753m  
  610.00000m    317.3805m  
  611.00000m    312.7933m  
  612.00000m    308.2142m  
  613.00000m    303.6437m  
  614.00000m    299.0823m  
  615.00000m    294.5308m  
  616.00000m    289.9898m  
  617.00000m    285.4599m  
  618.00000m    280.9421m  
  619.00000m    276.4371m  
  620.00000m    271.9458m  
  621.00000m    267.4694m  
  622.00000m    263.0087m  
  623.00000m    258.5650m  
  624.00000m    254.1395m  
  625.00000m    249.7336m  
  626.00000m    245.3488m  
  627.00000m    240.9866m  
  628.00000m    236.6487m  
  629.00000m    232.3370m  
  630.00000m    228.0535m  
  631.00000m    223.8003m  
  632.00000m    219.5796m  
  633.00000m    215.3940m  
  634.00000m    211.2458m  
  635.00000m    207.1380m  
  636.00000m    203.0733m  
  637.00000m    199.0547m  
  638.00000m    195.0854m  
  639.00000m    191.1683m  
  640.00000m    187.3067m  
  641.00000m    183.5039m  
  642.00000m    179.7628m  
  643.00000m    176.0866m  
  644.00000m    172.4781m  
  645.00000m    168.9399m  
  646.00000m    165.4743m  
  647.00000m    162.0834m  
  648.00000m    158.7688m  
  649.00000m    155.5317m  
  650.00000m    152.3729m  
  651.00000m    149.2927m  
  652.00000m    146.2911m  
  653.00000m    143.3675m  
  654.00000m    140.5210m  
  655.00000m    137.7505m  
  656.00000m    135.0543m  
  657.00000m    132.4308m  
  658.00000m    129.8780m  
  659.00000m    127.3938m  
  660.00000m    124.9759m  
  661.00000m    122.6222m  
  662.00000m    120.3303m  
  663.00000m    118.0979m  
  664.00000m    115.9229m  
  665.00000m    113.8028m  
  666.00000m    111.7357m  
  667.00000m    109.7194m  
  668.00000m    107.7519m  
  669.00000m    105.8313m  
  670.00000m    103.9557m  
  671.00000m    102.1234m  
  672.00000m    100.3327m  
  673.00000m     98.5821m  
  674.00000m     96.8700m  
  675.00000m     95.1950m  
  676.00000m     93.5558m  
  677.00000m     91.9510m  
  678.00000m     90.3795m  
  679.00000m     88.8402m  
  680.00000m     87.3318m  
  681.00000m     85.8535m  
  682.00000m     84.4042m  
  683.00000m     82.9830m  
  684.00000m     81.5891m  
  685.00000m     80.2215m  
  686.00000m     78.8795m  
  687.00000m     77.5624m  
  688.00000m     76.2695m  
  689.00000m     74.9999m  
  690.00000m     73.7532m  
  691.00000m     72.5287m  
  692.00000m     71.3258m  
  693.00000m     70.1439m  
  694.00000m     68.9825m  
  695.00000m     67.8411m  
  696.00000m     66.7191m  
  697.00000m     65.6162m  
  698.00000m     64.5319m  
  699.00000m     63.4656m  
  700.00000m     62.4171m  
  701.00000m     61.3859m  
  702.00000m     60.3716m  
  703.00000m     59.3739m  
  704.00000m     58.3924m  
  705.00000m     57.4267m  
  706.00000m     56.4766m  
  707.00000m     55.5417m  
  708.00000m     54.6217m  
  709.00000m     53.7163m  
  710.00000m     52.8253m  
  711.00000m     51.9483m  
  712.00000m     51.0850m  
  713.00000m     50.2353m  
  714.00000m     49.3989m  
  715.00000m     48.5755m  
  716.00000m     47.7649m  
  717.00000m     46.9669m  
  718.00000m     46.1812m  
  719.00000m     45.4077m  
  720.00000m     44.6461m  
  721.00000m     43.8962m  
  722.00000m     43.1579m  
  723.00000m     42.4309m  
  724.00000m     41.7150m  
  725.00000m     41.0102m  
  726.00000m     40.3161m  
  727.00000m     39.6326m  
  728.00000m     38.9596m  
  729.00000m     38.2969m  
  730.00000m     37.6444m  
  731.00000m     37.0018m  
  732.00000m     36.3690m  
  733.00000m     35.7460m  
  734.00000m     35.1324m  
  735.00000m     34.5283m  
  736.00000m     33.9334m  
  737.00000m     33.3477m  
  738.00000m     32.7709m  
  739.00000m     32.2030m  
  740.00000m     31.6438m  
  741.00000m     31.0932m  
  742.00000m     30.5511m  
  743.00000m     30.0174m  
  744.00000m     29.4919m  
  745.00000m     28.9746m  
  746.00000m     28.4652m  
  747.00000m     27.9638m  
  748.00000m     27.4702m  
  749.00000m     26.9842m  
  750.00000m     26.5059m  
  751.00000m     26.0350m  
  752.00000m     25.5715m  
  753.00000m     25.1153m  
  754.00000m     24.6662m  
  755.00000m     24.2243m  
  756.00000m     23.7893m  
  757.00000m     23.3612m  
  758.00000m     22.9399m  
  759.00000m     22.5253m  
  760.00000m     22.1173m  
  761.00000m     21.7159m  
  762.00000m     21.3209m  
  763.00000m     20.9322m  
  764.00000m     20.5498m  
  765.00000m     20.1736m  
  766.00000m     19.8034m  
  767.00000m     19.4393m  
  768.00000m     19.0811m  
  769.00000m     18.7288m  
  770.00000m     18.3822m  
  771.00000m     18.0413m  
  772.00000m     17.7060m  
  773.00000m     17.3763m  
  774.00000m     17.0520m  
  775.00000m     16.7331m  
  776.00000m     16.4196m  
  777.00000m     16.1112m  
  778.00000m     15.8081m  
  779.00000m     15.5100m  
  780.00000m     15.2169m  
  781.00000m     14.9288m  
  782.00000m     14.6456m  
  783.00000m     14.3672m  
  784.00000m     14.0936m  
  785.00000m     13.8246m  
  786.00000m     13.5602m  
  787.00000m     13.3004m  
  788.00000m     13.0451m  
  789.00000m     12.7942m  
  790.00000m     12.5476m  
  791.00000m     12.3053m  
  792.00000m     12.0673m  
  793.00000m     11.8334m  
  794.00000m     11.6036m  
  795.00000m     11.3779m  
  796.00000m     11.1562m  
  797.00000m     10.9384m  
  798.00000m     10.7244m  
  799.00000m     10.5143m  
  800.00000m     10.3079m  
  801.00000m     10.1052m  
  802.00000m      9.9062m  
  803.00000m      9.7107m  
  804.00000m      9.5188m  
  805.00000m      9.3303m  
  806.00000m      9.1453m  
  807.00000m      8.9636m  
  808.00000m      8.7852m  
  809.00000m      8.6101m  
  810.00000m      8.4383m  
  811.00000m      8.2695m  
  812.00000m      8.1039m  
  813.00000m      7.9414m  
  814.00000m      7.7819m  
  815.00000m      7.6253m  
  816.00000m      7.4716m  
  817.00000m      7.3209m  
  818.00000m      7.1729m  
  819.00000m      7.0277m  
  820.00000m      6.8853m  
  821.00000m      6.7455m  
  822.00000m      6.6084m  
  823.00000m      6.4739m  
  824.00000m      6.3419m  
  825.00000m      6.2124m  
  826.00000m      6.0854m  
  827.00000m      5.9609m  
  828.00000m      5.8387m  
  829.00000m      5.7188m  
  830.00000m      5.6013m  
  831.00000m      5.4860m  
  832.00000m      5.3730m  
  833.00000m      5.2621m  
  834.00000m      5.1534m  
  835.00000m      5.0468m  
  836.00000m      4.9423m  
  837.00000m      4.8398m  
  838.00000m      4.7394m  
  839.00000m      4.6409m  
  840.00000m      4.5443m  
  841.00000m      4.4496m  
  842.00000m      4.3568m  
  843.00000m      4.2658m  
  844.00000m      4.1766m  
  845.00000m      4.0892m  
  846.00000m      4.0035m  
  847.00000m      3.9195m  
  848.00000m      3.8372m  
  849.00000m      3.7566m  
  850.00000m      3.6775m  
  851.00000m      3.6000m  
  852.00000m      3.5241m  
  853.00000m      3.4497m  
  854.00000m      3.3768m  
  855.00000m      3.3053m  
  856.00000m      3.2353m  
  857.00000m      3.1667m  
  858.00000m      3.0995m  
  859.00000m      3.0337m  
  860.00000m      2.9692m  
  861.00000m      2.9059m  
  862.00000m      2.8440m  
  863.00000m      2.7834m  
  864.00000m      2.7239m  
  865.00000m      2.6657m  
  866.00000m      2.6087m  
  867.00000m      2.5529m  
  868.00000m      2.4981m  
  869.00000m      2.4446m  
  870.00000m      2.3921m  
  871.00000m      2.3407m  
  872.00000m      2.2903m  
  873.00000m      2.2410m  
  874.00000m      2.1927m  
  875.00000m      2.1454m  
  876.00000m      2.0991m  
  877.00000m      2.0537m  
  878.00000m      2.0093m  
  879.00000m      1.9658m  
  880.00000m      1.9232m  
  881.00000m      1.8815m  
  882.00000m      1.8407m  
  883.00000m      1.8007m  
  884.00000m      1.7615m  
  885.00000m      1.7232m  
  886.00000m      1.6856m  
  887.00000m      1.6489m  
  888.00000m      1.6129m  
  889.00000m      1.5777m  
  890.00000m      1.5432m  
  891.00000m      1.5095m  
  892.00000m      1.4764m  
  893.00000m      1.4441m  
  894.00000m      1.4124m  
  895.00000m      1.3814m  
  896.00000m      1.3511m  
  897.00000m      1.3214m  
  898.00000m      1.2923m  
  899.00000m      1.2638m  
  900.00000m      1.2360m  
  901.00000m      1.2087m  
  902.00000m      1.1820m  
  903.00000m      1.1559m  
  904.00000m      1.1304m  
  905.00000m      1.1054m  
  906.00000m      1.0809m  
  907.00000m      1.0569m  
  908.00000m      1.0335m  
  909.00000m      1.0105m  
  910.00000m    988.0943u  
  911.00000m    966.1273u  
  912.00000m    944.6319u  
  913.00000m    923.5985u  
  914.00000m    903.0175u  
  915.00000m    882.8796u  
  916.00000m    863.1758u  
  917.00000m    843.8969u  
  918.00000m    825.0344u  
  919.00000m    806.5795u  
  920.00000m    788.5238u  
  921.00000m    770.8591u  
  922.00000m    753.5772u  
  923.00000m    736.6702u  
  924.00000m    720.1303u  
  925.00000m    703.9499u  
  926.00000m    688.1215u  
  927.00000m    672.6377u  
  928.00000m    657.4914u  
  929.00000m    642.6755u  
  930.00000m    628.1831u  
  931.00000m    614.0074u  
  932.00000m    600.1418u  
  933.00000m    586.5798u  
  934.00000m    573.3150u  
  935.00000m    560.3412u  
  936.00000m    547.6522u  
  937.00000m    535.2421u  
  938.00000m    523.1050u  
  939.00000m    511.2351u  
  940.00000m    499.6268u  
  941.00000m    488.2745u  
  942.00000m    477.1729u  
  943.00000m    466.3165u  
  944.00000m    455.7003u  
  945.00000m    445.3192u  
  946.00000m    435.1680u  
  947.00000m    425.2420u  
  948.00000m    415.5363u  
  949.00000m    406.0463u  
  950.00000m    396.7674u  
  951.00000m    387.6950u  
  952.00000m    378.8247u  
  953.00000m    370.1523u  
  954.00000m    361.6734u  
  955.00000m    353.3839u  
  956.00000m    345.2798u  
  957.00000m    337.3571u  
  958.00000m    329.6119u  
  959.00000m    322.0403u  
  960.00000m    314.6387u  
  961.00000m    307.4033u  
  962.00000m    300.3306u  
  963.00000m    293.4170u  
  964.00000m    286.6592u  
  965.00000m    280.0536u  
  966.00000m    273.5972u  
  967.00000m    267.2865u  
  968.00000m    261.1185u  
  969.00000m    255.0900u  
  970.00000m    249.1981u  
  971.00000m    243.4397u  
  972.00000m    237.8118u  
  973.00000m    232.3118u  
  974.00000m    226.9368u  
  975.00000m    221.6840u  
  976.00000m    216.5507u  
  977.00000m    211.5345u  
  978.00000m    206.6326u  
  979.00000m    201.8426u  
  980.00000m    197.1620u  
  981.00000m    192.5885u  
  982.00000m    188.1195u  
  983.00000m    183.7530u  
  984.00000m    179.4865u  
  985.00000m    175.3180u  
  986.00000m    171.2451u  
  987.00000m    167.2659u  
  988.00000m    163.3782u  
  989.00000m    159.5800u  
  990.00000m    155.8693u  
  991.00000m    152.2442u  
  992.00000m    148.7027u  
  993.00000m    145.2431u  
  994.00000m    141.8635u  
  995.00000m    138.5620u  
  996.00000m    135.3370u  
  997.00000m    132.1868u  
  998.00000m    129.1097u  
  999.00000m    126.1040u  
    1.00000     123.1681u  
y
1****** HSPICE -- D-2010.03-SP1 32-BIT (May 26 2010) winnt ******               
 ******  
 first line of the netlist must be blank.

  ******  operating point information tnom=  25.000 temp=  27.000 *****
 ***** operating point status is all       simulation time is     0.     
    node    =voltage      node    =voltage      node    =voltage

 +0:in      =   1.0000  0:out     = 123.1681u 0:vdd     =   1.0000 


 ****  voltage sources

 subckt                        
 element  0:v1       0:vin     
  volts      1.0000     1.0000 
  current  -45.8192n   -1.3214n
  power     45.8192n    1.3214n

     total voltage source power dissipation=   47.1406n       watts




 **** mosfets


 subckt                        
 element  0:m1       0:m2      
 model    0:pmos     0:nmos    
 region       Cutoff     Linear
  id       -45.8181n   46.4951n
  ibs     -9.579e-25  2.445e-25
  ibd        1.0099p -170.6760a
  vgs        0.         1.0000 
  vds     -999.8768m  123.1681u
  vbs        0.         0.     
  vth     -223.0997m  467.0249m
  vdsat    -45.6378m  276.2747m
  vod      223.0997m  532.9751m
  beta       2.9442m    2.3591m
  gam eff  488.0000m  528.0000m
  gm         1.0777u   22.0588n
  gds      237.1398n  377.4293u
  gmb      292.3700n   11.8540n
  cdtot    585.7678a  126.6510a
  cgtot    682.6553a  113.9905a
  cstot      1.0752f  114.2392a
  cbtot      1.1777f  127.4548a
  cgs      355.2330a   63.1416a
  cgd      227.7566a   50.7744a




          ***** job concluded
1****** HSPICE -- D-2010.03-SP1 32-BIT (May 26 2010) winnt ******               
 ******  
 first line of the netlist must be blank.

  ******  job statistics summary tnom=  25.000 temp=  27.000 *****

  ******  HSPICE Threads Information  ******

  Command Line Threads Count                  :     1
  Available CPU Count                         :     4
  Actual Model Evaluation(Load) Threads Count :     1
  Actual Solver Threads Count                 :     1


  ******  Circuit Statistics  ******
  # nodes       =      12 # elements   =       4
  # resistors   =       0 # capacitors =       0 # inductors   =       0
  # mutual_inds =       0 # vccs       =       0 # vcvs        =       0
  # cccs        =       0 # ccvs       =       0 # volt_srcs   =       2
  # curr_srcs   =       0 # diodes     =       0 # bjts        =       0
  # jfets       =       0 # mosfets    =       2 # U elements  =       0
  # T elements  =       0 # W elements =       0 # B elements  =       0
  # S elements  =       0 # P elements =       0 # va device   =       0


  ******  Runtime Statistics (seconds)  ******

  analysis           time    # points   tot. iter  conv.iter
  op point           0.01           1          15
  dc sweep           0.05         991        1987
  readin             0.06
  errchk             0.01
  setup              0.01
  output             0.00


           total memory used          182  kbytes
           total cpu time            0.16 seconds
           total elapsed time        0.20 seconds
           job started at     13:47:53 10/31/2014
           job ended   at     13:47:54 10/31/2014


  lic: Release hspice token(s) 
