 ****** HSPICE -- D-2010.03-SP1 32-BIT (May 26 2010) winnt ******               
  Copyright (C) 2010 Synopsys, Inc. All Rights Reserved.                        
  Unpublished-rights reserved under US copyright laws.
  This program is protected by law and is subject to the 
  terms and conditions of the license agreement from Synopsys.
  Use of this program is your acceptance to be bound by the 
  license agreement. HSPICE is the trademark of Synopsys, Inc.
  Input File: d:\digital electronic\projects\ca_1\question_1_parts_a_b_beta_0.8\
  lic:  
  lic: FLEXlm: v8.5b 
  lic: USER:   HP                   HOSTNAME: ProBook 
  lic: HOSTID: "00090faa0001 56db30007c95 16db30007c95 a4db30007c95 a45d36cb5ab9
  
  lic: Using FLEXlm license file: 
  lic: 27000@elena 
  lic: Checkout 1 hspice 
  lic: License/Maintenance for hspice will expire on 31-dec-2020/2007.9 
  lic: NODE LOCKED license on hostid "00090faa0001 56db30007c95 16db30007c95 a4d
 b
  lic:   
 Init: read install configuration file: C:\synopsys\Hspice_D-2010.03-SP1\meta.cfg
1****** HSPICE -- D-2010.03-SP1 32-BIT (May 26 2010) winnt ******               
 ******  
 first line of the netlist must be blank.

  ******  mos   model parameters tnom=  25.000 temp=  25.000 *****
 
Model Name: nmos  

 BSIM4 Model (Level 54)

    MOBMOD = 0
    BINUNIT = 1
    PARAMCHK = 1
    CAPMOD = 2
    DIOMOD = 1
    RDSMOD = 0
    TRNQSMOD = 0
    ACNQSMOD = 0
    RBODYMOD = 1
    RGATEMOD = 1
    PERMOD = 1
    GEOMOD = 1
    RGEOMOD = 0
    FNOIMOD = 1
    TNOIMOD = 0
    IGCMOD = 1
    IGBMOD = 1
    STIMOD = 0
    VERSION =      4 
    TOXREF = 1.75e-009 
    TOXE = 1.75e-009 
    TOXP = 1.1e-009 
    TOXM = 1.75e-009 
    DTOX = 6.5e-010 
    EPSROX =    3.9 
    CDSC =      0 
    CDSCB =      0 
    CDSCD =      0 
    CIT =      0 
    NFACTOR =    2.1 
    XJ = 1.4e-008 
    VSAT = 1.474e+005 
    A0 =      1 
    AGS = 1e-020 
    A1 =      0 
    A2 =      1 
    AT = 3.3e+004 
    KETA =   0.04 
    NSUB = 6e+016 
    NDEP = 3.28e+018 
    NSD = 2e+020 
    NGATE = 2e+020 
    GAMMA1 =      0 
    GAMMA2 =      0 
    VBX =      0 
    VBM =     -3 
    XT = 1.55e-007 
    K1 =  0.528 
    KT1 =  -0.11 
    KT1L =      0 
    KT2 =  0.022 
    K2 =   0.01 
    K3 =      0 
    K3B =      0 
    LPE0 =      0 
    LPEB =      0 
    DVTP0 = 1e-009 
    DVTP1 =    0.1 
    W0 = 2.5e-006 
    DVT0 =      1 
    DVT1 =      2 
    DVT2 = -0.032 
    DVT0W =      0 
    DVT1W =      0 
    DVT2W =      0 
    DROUT =    0.5 
    DSUB =    0.1 
    VTH0 =  0.469 
    EU =   1.67 
    UA = 6e-010 
    UA1 = 4.31e-009 
    UB = 1.2e-018 
    UB1 = 7.61e-018 
    UC =      0 
    UC1 = -5.6e-011 
    U0 = 0.04372 
    UTE =   -1.5 
    VOFF =  -0.13 
    VOFFL =      0 
    MINV =   0.05 
    FPROUT =    0.2 
    PDITS =   0.08 
    PDITSD =   0.23 
    PDITSL = 2.3e+006 
    DELTA =   0.01 
    RDSW =    155 
    RDSWMIN =      0 
    RDWMIN =      0 
    RSWMIN =      0 
    RDW =     85 
    RSW =     85 
    PRWG =      0 
    PRWB = 6.8e-011 
    PRT =      0 
    ETA0 = 0.0049 
    ETAB =      0 
    PCLM =   0.04 
    PDIBLC1 =  0.001 
    PDIBLC2 =  0.001 
    PDIBLCB = -0.005 
    PSCBE1 = 8.14e+008 
    PSCBE2 = 1e-007 
    PVAG = 1e-020 
    WR =      1 
    DWG =      0 
    DWB =      0 
    XW =      0 
    XWREF =      0 
    XL = -2e-008 
    XLREF = -2e-008 
    B0 =      0 
    B1 =      0 
    ALPHA0 =  0.074 
    ALPHA1 =  0.005 
    AGIDL = 0.0002 
    BGIDL = 2.1e+009 
    CGIDL = 0.0002 
    PHIN =      0 
    EGIDL =    0.8 
    AIGC =  0.012 
    BIGC = 0.0028 
    CIGC =  0.002 
    AIGSD =  0.012 
    BIGSD = 0.0028 
    CIGSD =  0.002 
    AIGBACC =  0.012 
    BIGBACC = 0.0028 
    CIGBACC =  0.002 
    AIGBINV =  0.014 
    BIGBINV =  0.004 
    CIGBINV =  0.004 
    NIGC =      1 
    NIGBINV =      3 
    NIGBACC =      1 
    NTOX =      1 
    EIGBINV =    1.1 
    PIGCD =      1 
    POXEDGE =      1 
    XRCRG1 =     12 
    TNOIA =    1.5 
    TNOIB =    3.5 
    NTNOI =      1 
    XRCRG2 =      5 
    BETA0 =     30 
    IJTHDFWD =   0.01 
    IJTHSFWD =   0.01 
    IJTHDREV =  0.001 
    IJTHSREV =  0.001 
    XJBVD =      1 
    XJBVS =      1 
    BVD =     10 
    BVS =     10 
    VFB =  -0.55 
    GBMIN = 1e-010 
    RBDB =     15 
    RBPB =      5 
    RBSB =     15 
    RBPS =     15 
    RBPD =     15 
    CGSL = 2.653e-010 
    CGDL = 2.653e-010 
    CKAPPAS =   0.03 
    CKAPPAD =   0.03 
    CF = 1.195e-010 
    CLC = 1e-007 
    CLE =    0.6 
    DWC = 5e-009 
    DLC = 3.75e-009 
    DLCIG = 3.75e-009 
    DWJ =      0 
    VFBCV =     -1 
    ACDE =      1 
    MOIN =     15 
    NOFF =    0.9 
    VOFFCV =   0.02 
    DMCG =      0 
    DMCI =      0 
    DMDG =      0 
    DMCGT =      0 
    XGW =      0 
    XGL =      0 
    RSHG =    0.4 
    NGCON =      1 
    TCJ =  0.001 
    TPB =  0.005 
    TCJSW =  0.001 
    TPBSW =  0.005 
    TCJSWG =  0.001 
    TPBSWG =  0.005 
    SK0 =      0 
    SK1 =      0 
    SK2 =      0 
    SL = 2e-006 
    SW = 2e-006 
    K =      0 
    TNOM =  300.1 
    CGSO = 1.1e-010 
    CGDO = 1.1e-010 
    CGBO = 2.56e-011 
    XPART =      0 
    RSH =      5 
    JSS = 0.0001 
    JSWS = 1e-011 
    JSWGS = 1e-010 
    PBS =      1 
    MJS =    0.5 
    PBSWS =      1 
    MJSWS =   0.33 
    CJS = 0.0005 
    CJSWS = 5e-010 
    NJS =      1 
    PBSWGS =      1 
    MJSWGS =   0.33 
    CJSWGS = 3e-010 
    XTIS =      3 
    JSD = 0.0001 
    JSWD = 1e-011 
    JSWGD = 1e-010 
    PBD =      1 
    MJD =    0.5 
    PBSWD =      1 
    MJSWD =   0.33 
    CJD = 0.0005 
    CJSWD = 5e-010 
    NJD =      1 
    PBSWGD =      1 
    MJSWGD =   0.33 
    CJSWGD = 5e-010 
    XTID =      3 
    LMLT =      1 
    WMLT =      1 
    LINT = 3.75e-009 
    LL =      0 
    LLC =      0 
    LLN =      1 
    LW =      0 
    LWC =      0 
    LWN =      1 
    LWL =      0 
    LWLC =      0 
    LMIN =      0 
    LMAX =      1 
    WINT = 5e-009 
    WL =      0 
    WLC =      0 
    WLN =      1 
    WW =      0 
    WWC =      0 
    WWN =      1 
    WWL =      0 
    WWLC =      0 
    WMIN =      0 
    WMAX =      1 
    NOIA = 6.25e+041 
    NOIB = 3.125e+026 
    NOIC = 8.75e+009 
    EM = 4.1e+007 
    EF =      1 
    AF =      1 
    KF =      0 
    TRS =      0 
    TRD =      0 
 

 
Model Name: pmos  

 BSIM4 Model (Level 54)

    MOBMOD = 0
    BINUNIT = 1
    PARAMCHK = 1
    CAPMOD = 2
    DIOMOD = 1
    RDSMOD = 0
    TRNQSMOD = 0
    ACNQSMOD = 0
    RBODYMOD = 1
    RGATEMOD = 1
    PERMOD = 1
    GEOMOD = 1
    RGEOMOD = 0
    FNOIMOD = 1
    TNOIMOD = 0
    IGCMOD = 1
    IGBMOD = 1
    STIMOD = 0
    VERSION =      4 
    TOXREF = 1.85e-009 
    TOXE = 1.85e-009 
    TOXP = 1.1e-009 
    TOXM = 1.85e-009 
    DTOX = 7.5e-010 
    EPSROX =    3.9 
    CDSC =      0 
    CDSCB =      0 
    CDSCD =      0 
    CIT =      0 
    NFACTOR =    2.1 
    XJ = 1.4e-008 
    VSAT = 7e+004 
    A0 =      1 
    AGS = 1e-020 
    A1 =      0 
    A2 =      1 
    AT = 3.3e+004 
    KETA = -0.047 
    NSUB = 6e+016 
    NDEP = 2.5e+018 
    NSD = 2e+020 
    NGATE = 2e+020 
    GAMMA1 =      0 
    GAMMA2 =      0 
    VBX =      0 
    VBM =     -3 
    XT = 1.55e-007 
    K1 =  0.488 
    KT1 =  -0.11 
    KT1L =      0 
    KT2 =  0.022 
    K2 =  -0.01 
    K3 =      0 
    K3B =      0 
    LPE0 =      0 
    LPEB =      0 
    DVTP0 = 1e-009 
    DVTP1 =   0.05 
    W0 = 2.5e-006 
    DVT0 =      1 
    DVT1 =      2 
    DVT2 = -0.032 
    DVT0W =      0 
    DVT1W =      0 
    DVT2W =      0 
    DROUT =   0.56 
    DSUB =    0.1 
    VTH0 = -0.418 
    EU =      1 
    UA = 2e-009 
    UA1 = 4.31e-009 
    UB = 5e-019 
    UB1 = 7.61e-018 
    UC =      0 
    UC1 = -5.6e-011 
    U0 = 0.00439 
    UTE =   -1.5 
    VOFF = -0.126 
    VOFFL =      0 
    MINV =   0.05 
    FPROUT =    0.2 
    PDITS =   0.08 
    PDITSD =   0.23 
    PDITSL = 2.3e+006 
    DELTA =   0.01 
    RDSW =    155 
    RDSWMIN =      0 
    RDWMIN =      0 
    RSWMIN =      0 
    RDW =     85 
    RSW =     85 
    PRWG = 3.22e-008 
    PRWB = 6.8e-011 
    PRT =      0 
    ETA0 = 0.0049 
    ETAB =      0 
    PCLM =   0.12 
    PDIBLC1 =  0.001 
    PDIBLC2 =  0.001 
    PDIBLCB = 3.4e-008 
    PSCBE1 = 8.14e+008 
    PSCBE2 = 9.58e-007 
    PVAG = 1e-020 
    WR =      1 
    DWG =      0 
    DWB =      0 
    XW =      0 
    XWREF =      0 
    XL = -2e-008 
    XLREF = -2e-008 
    B0 = -1e-020 
    B1 =      0 
    ALPHA0 =  0.074 
    ALPHA1 =  0.005 
    AGIDL = 0.0002 
    BGIDL = 2.1e+009 
    CGIDL = 0.0002 
    PHIN =      0 
    EGIDL =    0.8 
    AIGC =   0.69 
    BIGC = 0.0012 
    CIGC = 0.0008 
    AIGSD = 0.0087 
    BIGSD = 0.0012 
    CIGSD = 0.0008 
    AIGBACC =  0.012 
    BIGBACC = 0.0028 
    CIGBACC =  0.002 
    AIGBINV =  0.014 
    BIGBINV =  0.004 
    CIGBINV =  0.004 
    NIGC =      1 
    NIGBINV =      3 
    NIGBACC =      1 
    NTOX =      1 
    EIGBINV =    1.1 
    PIGCD =      1 
    POXEDGE =      1 
    XRCRG1 =     12 
    TNOIA =    1.5 
    TNOIB =    3.5 
    NTNOI =      1 
    XRCRG2 =      5 
    BETA0 =     30 
    IJTHDFWD =   0.01 
    IJTHSFWD =   0.01 
    IJTHDREV =  0.001 
    IJTHSREV =  0.001 
    XJBVD =      1 
    XJBVS =      1 
    BVD =     10 
    BVS =     10 
    VFB =   0.55 
    GBMIN = 1e-010 
    RBDB =     15 
    RBPB =      5 
    RBSB =     15 
    RBPS =     15 
    RBPD =     15 
    CGSL = 2.653e-010 
    CGDL = 2.653e-010 
    CKAPPAS =   0.03 
    CKAPPAD =   0.03 
    CF = 1.183e-010 
    CLC = 1e-007 
    CLE =    0.6 
    DWC = 5e-009 
    DLC = 3.75e-009 
    DLCIG = 3.75e-009 
    DWJ =      0 
    VFBCV =     -1 
    ACDE =      1 
    MOIN =     15 
    NOFF =    0.9 
    VOFFCV =   0.02 
    DMCG =      0 
    DMCI =      0 
    DMDG =      0 
    DMCGT =      0 
    XGW =      0 
    XGL =      0 
    RSHG =    0.4 
    NGCON =      1 
    TCJ =  0.001 
    TPB =  0.005 
    TCJSW =  0.001 
    TPBSW =  0.005 
    TCJSWG =  0.001 
    TPBSWG =  0.005 
    SK0 =      0 
    SK1 =      0 
    SK2 =      0 
    SL = 2e-006 
    SW = 2e-006 
    K =      0 
    TNOM =  300.1 
    CGSO = 1.1e-010 
    CGDO = 1.1e-010 
    CGBO = 2.56e-011 
    XPART =      0 
    RSH =      5 
    JSS = 0.0001 
    JSWS = 1e-011 
    JSWGS = 1e-010 
    PBS =      1 
    MJS =    0.5 
    PBSWS =      1 
    MJSWS =   0.33 
    CJS = 0.0005 
    CJSWS = 5e-010 
    NJS =      1 
    PBSWGS =      1 
    MJSWGS =   0.33 
    CJSWGS = 3e-010 
    XTIS =      3 
    JSD = 0.0001 
    JSWD = 1e-011 
    JSWGD = 1e-010 
    PBD =      1 
    MJD =    0.5 
    PBSWD =      1 
    MJSWD =   0.33 
    CJD = 0.0005 
    CJSWD = 5e-010 
    NJD =      1 
    PBSWGD =      1 
    MJSWGD =   0.33 
    CJSWGD = 5e-010 
    XTID =      3 
    LMLT =      1 
    WMLT =      1 
    LINT = 3.75e-009 
    LL =      0 
    LLC =      0 
    LLN =      1 
    LW =      0 
    LWC =      0 
    LWN =      1 
    LWL =      0 
    LWLC =      0 
    LMIN =      0 
    LMAX =      1 
    WINT = 5e-009 
    WL =      0 
    WLC =      0 
    WLN =      1 
    WW =      0 
    WWC =      0 
    WWN =      1 
    WWL =      0 
    WWLC =      0 
    WMIN =      0 
    WMAX =      1 
    NOIA = 6.188e+040 
    NOIB = 1.5e+025 
    NOIC = 8.75e+009 
    EM = 4.1e+007 
    EF =      1 
    AF =      1 
    KF =      0 
    TRS =      0 
    TRD =      0 
 

 Warning:  Acde = 1 may be too small in BSIM4 model nmos with w=9e-008 l=4.5e-008.

 Warning: (B1 + Weff) may be too small in BSIM4 model nmos with w=9e-008 l=4.5e-008.

 Warning:  Acde = 1 may be too small in BSIM4 model pmos with w=7.2e-008 l=4.5e-008.

 Warning: (B1 + Weff) may be too small in BSIM4 model pmos with w=7.2e-008 l=4.5e-008.

 
      
 *****************************************************************
 ******  option summary
 ******
 runlvl  = 3         bypass  = 2         
 Warning:  Acde = 1 may be too small in BSIM4 model nmos with w=9e-008 l=4.5e-008.

 Warning: (B1 + Weff) may be too small in BSIM4 model nmos with w=9e-008 l=4.5e-008.

 Warning:  Acde = 1 may be too small in BSIM4 model pmos with w=7.2e-008 l=4.5e-008.

 Warning: (B1 + Weff) may be too small in BSIM4 model pmos with w=7.2e-008 l=4.5e-008.

 ******  
 first line of the netlist must be blank.

  ******  dc transfer curves tnom=  25.000 temp=  27.000 *****
x

        volt    voltage    
                    out    
   10.00000m    999.8636m  
   11.00000m    999.8603m  
   12.00000m    999.8569m  
   13.00000m    999.8534m  
   14.00000m    999.8499m  
   15.00000m    999.8462m  
   16.00000m    999.8425m  
   17.00000m    999.8387m  
   18.00000m    999.8348m  
   19.00000m    999.8308m  
   20.00000m    999.8267m  
   21.00000m    999.8224m  
   22.00000m    999.8181m  
   23.00000m    999.8137m  
   24.00000m    999.8092m  
   25.00000m    999.8045m  
   26.00000m    999.7998m  
   27.00000m    999.7949m  
   28.00000m    999.7899m  
   29.00000m    999.7848m  
   30.00000m    999.7795m  
   31.00000m    999.7742m  
   32.00000m    999.7687m  
   33.00000m    999.7630m  
   34.00000m    999.7572m  
   35.00000m    999.7513m  
   36.00000m    999.7452m  
   37.00000m    999.7390m  
   38.00000m    999.7326m  
   39.00000m    999.7261m  
   40.00000m    999.7194m  
   41.00000m    999.7126m  
   42.00000m    999.7056m  
   43.00000m    999.6984m  
   44.00000m    999.6910m  
   45.00000m    999.6835m  
   46.00000m    999.6757m  
   47.00000m    999.6678m  
   48.00000m    999.6597m  
   49.00000m    999.6514m  
   50.00000m    999.6429m  
   51.00000m    999.6342m  
   52.00000m    999.6253m  
   53.00000m    999.6161m  
   54.00000m    999.6068m  
   55.00000m    999.5972m  
   56.00000m    999.5873m  
   57.00000m    999.5773m  
   58.00000m    999.5670m  
   59.00000m    999.5564m  
   60.00000m    999.5456m  
   61.00000m    999.5345m  
   62.00000m    999.5232m  
   63.00000m    999.5116m  
   64.00000m    999.4997m  
   65.00000m    999.4875m  
   66.00000m    999.4751m  
   67.00000m    999.4623m  
   68.00000m    999.4492m  
   69.00000m    999.4358m  
   70.00000m    999.4221m  
   71.00000m    999.4081m  
   72.00000m    999.3937m  
   73.00000m    999.3790m  
   74.00000m    999.3639m  
   75.00000m    999.3485m  
   76.00000m    999.3327m  
   77.00000m    999.3165m  
   78.00000m    999.3000m  
   79.00000m    999.2830m  
   80.00000m    999.2657m  
   81.00000m    999.2479m  
   82.00000m    999.2297m  
   83.00000m    999.2111m  
   84.00000m    999.1920m  
   85.00000m    999.1725m  
   86.00000m    999.1525m  
   87.00000m    999.1321m  
   88.00000m    999.1112m  
   89.00000m    999.0898m  
   90.00000m    999.0678m  
   91.00000m    999.0454m  
   92.00000m    999.0224m  
   93.00000m    998.9989m  
   94.00000m    998.9749m  
   95.00000m    998.9503m  
   96.00000m    998.9251m  
   97.00000m    998.8993m  
   98.00000m    998.8729m  
   99.00000m    998.8459m  
  100.00000m    998.8183m  
  101.00000m    998.7900m  
  102.00000m    998.7611m  
  103.00000m    998.7315m  
  104.00000m    998.7012m  
  105.00000m    998.6702m  
  106.00000m    998.6385m  
  107.00000m    998.6060m  
  108.00000m    998.5728m  
  109.00000m    998.5389m  
  110.00000m    998.5041m  
  111.00000m    998.4686m  
  112.00000m    998.4322m  
  113.00000m    998.3950m  
  114.00000m    998.3569m  
  115.00000m    998.3180m  
  116.00000m    998.2782m  
  117.00000m    998.2375m  
  118.00000m    998.1958m  
  119.00000m    998.1532m  
  120.00000m    998.1096m  
  121.00000m    998.0651m  
  122.00000m    998.0195m  
  123.00000m    997.9729m  
  124.00000m    997.9252m  
  125.00000m    997.8764m  
  126.00000m    997.8266m  
  127.00000m    997.7756m  
  128.00000m    997.7234m  
  129.00000m    997.6701m  
  130.00000m    997.6156m  
  131.00000m    997.5599m  
  132.00000m    997.5029m  
  133.00000m    997.4446m  
  134.00000m    997.3851m  
  135.00000m    997.3242m  
  136.00000m    997.2619m  
  137.00000m    997.1982m  
  138.00000m    997.1332m  
  139.00000m    997.0667m  
  140.00000m    996.9987m  
  141.00000m    996.9292m  
  142.00000m    996.8581m  
  143.00000m    996.7855m  
  144.00000m    996.7113m  
  145.00000m    996.6355m  
  146.00000m    996.5580m  
  147.00000m    996.4788m  
  148.00000m    996.3978m  
  149.00000m    996.3151m  
  150.00000m    996.2305m  
  151.00000m    996.1442m  
  152.00000m    996.0559m  
  153.00000m    995.9657m  
  154.00000m    995.8735m  
  155.00000m    995.7794m  
  156.00000m    995.6832m  
  157.00000m    995.5849m  
  158.00000m    995.4845m  
  159.00000m    995.3820m  
  160.00000m    995.2772m  
  161.00000m    995.1702m  
  162.00000m    995.0609m  
  163.00000m    994.9492m  
  164.00000m    994.8351m  
  165.00000m    994.7187m  
  166.00000m    994.5997m  
  167.00000m    994.4782m  
  168.00000m    994.3541m  
  169.00000m    994.2274m  
  170.00000m    994.0980m  
  171.00000m    993.9659m  
  172.00000m    993.8309m  
  173.00000m    993.6932m  
  174.00000m    993.5525m  
  175.00000m    993.4089m  
  176.00000m    993.2623m  
  177.00000m    993.1126m  
  178.00000m    992.9598m  
  179.00000m    992.8038m  
  180.00000m    992.6446m  
  181.00000m    992.4820m  
  182.00000m    992.3161m  
  183.00000m    992.1468m  
  184.00000m    991.9740m  
  185.00000m    991.7976m  
  186.00000m    991.6176m  
  187.00000m    991.4339m  
  188.00000m    991.2464m  
  189.00000m    991.0551m  
  190.00000m    990.8599m  
  191.00000m    990.6608m  
  192.00000m    990.4575m  
  193.00000m    990.2502m  
  194.00000m    990.0387m  
  195.00000m    989.8229m  
  196.00000m    989.6028m  
  197.00000m    989.3782m  
  198.00000m    989.1492m  
  199.00000m    988.9155m  
  200.00000m    988.6772m  
  201.00000m    988.4342m  
  202.00000m    988.1863m  
  203.00000m    987.9335m  
  204.00000m    987.6757m  
  205.00000m    987.4128m  
  206.00000m    987.1447m  
  207.00000m    986.8714m  
  208.00000m    986.5927m  
  209.00000m    986.3085m  
  210.00000m    986.0188m  
  211.00000m    985.7235m  
  212.00000m    985.4224m  
  213.00000m    985.1155m  
  214.00000m    984.8026m  
  215.00000m    984.4837m  
  216.00000m    984.1587m  
  217.00000m    983.8274m  
  218.00000m    983.4898m  
  219.00000m    983.1457m  
  220.00000m    982.7951m  
  221.00000m    982.4378m  
  222.00000m    982.0738m  
  223.00000m    981.7028m  
  224.00000m    981.3249m  
  225.00000m    980.9399m  
  226.00000m    980.5476m  
  227.00000m    980.1479m  
  228.00000m    979.7409m  
  229.00000m    979.3262m  
  230.00000m    978.9038m  
  231.00000m    978.4736m  
  232.00000m    978.0354m  
  233.00000m    977.5892m  
  234.00000m    977.1348m  
  235.00000m    976.6720m  
  236.00000m    976.2008m  
  237.00000m    975.7209m  
  238.00000m    975.2324m  
  239.00000m    974.7350m  
  240.00000m    974.2285m  
  241.00000m    973.7130m  
  242.00000m    973.1881m  
  243.00000m    972.6539m  
  244.00000m    972.1101m  
  245.00000m    971.5565m  
  246.00000m    970.9932m  
  247.00000m    970.4198m  
  248.00000m    969.8363m  
  249.00000m    969.2424m  
  250.00000m    968.6381m  
  251.00000m    968.0232m  
  252.00000m    967.3976m  
  253.00000m    966.7610m  
  254.00000m    966.1133m  
  255.00000m    965.4544m  
  256.00000m    964.7840m  
  257.00000m    964.1021m  
  258.00000m    963.4084m  
  259.00000m    962.7028m  
  260.00000m    961.9851m  
  261.00000m    961.2551m  
  262.00000m    960.5127m  
  263.00000m    959.7577m  
  264.00000m    958.9898m  
  265.00000m    958.2090m  
  266.00000m    957.4150m  
  267.00000m    956.6076m  
  268.00000m    955.7867m  
  269.00000m    954.9520m  
  270.00000m    954.1034m  
  271.00000m    953.2406m  
  272.00000m    952.3635m  
  273.00000m    951.4718m  
  274.00000m    950.5654m  
  275.00000m    949.6441m  
  276.00000m    948.7075m  
  277.00000m    947.7555m  
  278.00000m    946.7880m  
  279.00000m    945.8046m  
  280.00000m    944.8051m  
  281.00000m    943.7894m  
  282.00000m    942.7571m  
  283.00000m    941.7081m  
  284.00000m    940.6421m  
  285.00000m    939.5588m  
  286.00000m    938.4581m  
  287.00000m    937.3396m  
  288.00000m    936.2031m  
  289.00000m    935.0483m  
  290.00000m    933.8751m  
  291.00000m    932.6830m  
  292.00000m    931.4719m  
  293.00000m    930.2414m  
  294.00000m    928.9912m  
  295.00000m    927.7212m  
  296.00000m    926.4309m  
  297.00000m    925.1201m  
  298.00000m    923.7884m  
  299.00000m    922.4356m  
  300.00000m    921.0614m  
  301.00000m    919.6653m  
  302.00000m    918.2471m  
  303.00000m    916.8064m  
  304.00000m    915.3429m  
  305.00000m    913.8561m  
  306.00000m    912.3458m  
  307.00000m    910.8116m  
  308.00000m    909.2531m  
  309.00000m    907.6698m  
  310.00000m    906.0614m  
  311.00000m    904.4275m  
  312.00000m    902.7676m  
  313.00000m    901.0813m  
  314.00000m    899.3682m  
  315.00000m    897.6277m  
  316.00000m    895.8595m  
  317.00000m    894.0630m  
  318.00000m    892.2378m  
  319.00000m    890.3833m  
  320.00000m    888.4989m  
  321.00000m    886.5843m  
  322.00000m    884.6387m  
  323.00000m    882.6616m  
  324.00000m    880.6525m  
  325.00000m    878.6107m  
  326.00000m    876.5356m  
  327.00000m    874.4266m  
  328.00000m    872.2830m  
  329.00000m    870.1040m  
  330.00000m    867.8890m  
  331.00000m    865.6374m  
  332.00000m    863.3482m  
  333.00000m    861.0208m  
  334.00000m    858.6543m  
  335.00000m    856.2480m  
  336.00000m    853.8010m  
  337.00000m    851.3124m  
  338.00000m    848.7814m  
  339.00000m    846.2071m  
  340.00000m    843.5884m  
  341.00000m    840.9246m  
  342.00000m    838.2146m  
  343.00000m    835.4574m  
  344.00000m    832.6520m  
  345.00000m    829.7975m  
  346.00000m    826.8928m  
  347.00000m    823.9369m  
  348.00000m    820.9289m  
  349.00000m    817.8679m  
  350.00000m    814.7530m  
  351.00000m    811.5833m  
  352.00000m    808.3580m  
  353.00000m    805.0762m  
  354.00000m    801.7372m  
  355.00000m    798.3403m  
  356.00000m    794.8850m  
  357.00000m    791.3709m  
  358.00000m    787.7978m  
  359.00000m    784.1654m  
  360.00000m    780.4740m  
  361.00000m    776.7237m  
  362.00000m    772.9151m  
  363.00000m    769.0489m  
  364.00000m    765.1260m  
  365.00000m    761.1476m  
  366.00000m    757.1148m  
  367.00000m    753.0294m  
  368.00000m    748.8930m  
  369.00000m    744.7075m  
  370.00000m    740.4748m  
  371.00000m    736.1969m  
  372.00000m    731.8761m  
  373.00000m    727.5145m  
  374.00000m    723.1142m  
  375.00000m    718.6773m  
  376.00000m    714.2061m  
  377.00000m    709.7024m  
  378.00000m    705.1683m  
  379.00000m    700.6057m  
  380.00000m    696.0164m  
  381.00000m    691.4020m  
  382.00000m    686.7642m  
  383.00000m    682.1044m  
  384.00000m    677.4242m  
  385.00000m    672.7247m  
  386.00000m    668.0073m  
  387.00000m    663.2731m  
  388.00000m    658.5232m  
  389.00000m    653.7585m  
  390.00000m    648.9799m  
  391.00000m    644.1885m  
  392.00000m    639.3849m  
  393.00000m    634.5699m  
  394.00000m    629.7441m  
  395.00000m    624.9083m  
  396.00000m    620.0631m  
  397.00000m    615.2090m  
  398.00000m    610.3465m  
  399.00000m    605.4761m  
  400.00000m    600.5983m  
  401.00000m    595.7136m  
  402.00000m    590.8222m  
  403.00000m    585.9247m  
  404.00000m    581.0213m  
  405.00000m    576.1125m  
  406.00000m    571.1984m  
  407.00000m    566.2795m  
  408.00000m    561.3560m  
  409.00000m    556.4281m  
  410.00000m    551.4962m  
  411.00000m    546.5605m  
  412.00000m    541.6212m  
  413.00000m    536.6785m  
  414.00000m    531.7326m  
  415.00000m    526.7837m  
  416.00000m    521.8321m  
  417.00000m    516.8779m  
  418.00000m    511.9213m  
  419.00000m    506.9625m  
  420.00000m    502.0015m  
  421.00000m    497.0387m  
  422.00000m    492.0741m  
  423.00000m    487.1078m  
  424.00000m    482.1401m  
  425.00000m    477.1711m  
  426.00000m    472.2009m  
  427.00000m    467.2296m  
  428.00000m    462.2573m  
  429.00000m    457.2843m  
  430.00000m    452.3106m  
  431.00000m    447.3363m  
  432.00000m    442.3617m  
  433.00000m    437.3867m  
  434.00000m    432.4115m  
  435.00000m    427.4363m  
  436.00000m    422.4612m  
  437.00000m    417.4862m  
  438.00000m    412.5115m  
  439.00000m    407.5373m  
  440.00000m    402.5636m  
  441.00000m    397.5907m  
  442.00000m    392.6185m  
  443.00000m    387.6473m  
  444.00000m    382.6771m  
  445.00000m    377.7082m  
  446.00000m    372.7406m  
  447.00000m    367.7745m  
  448.00000m    362.8100m  
  449.00000m    357.8474m  
  450.00000m    352.8867m  
  451.00000m    347.9281m  
  452.00000m    342.9719m  
  453.00000m    338.0181m  
  454.00000m    333.0670m  
  455.00000m    328.1188m  
  456.00000m    323.1737m  
  457.00000m    318.2318m  
  458.00000m    313.2935m  
  459.00000m    308.3590m  
  460.00000m    303.4286m  
  461.00000m    298.5025m  
  462.00000m    293.5811m  
  463.00000m    288.6646m  
  464.00000m    283.7534m  
  465.00000m    278.8479m  
  466.00000m    273.9485m  
  467.00000m    269.0555m  
  468.00000m    264.1696m  
  469.00000m    259.2910m  
  470.00000m    254.4205m  
  471.00000m    249.5586m  
  472.00000m    244.7059m  
  473.00000m    239.8632m  
  474.00000m    235.0311m  
  475.00000m    230.2105m  
  476.00000m    225.4023m  
  477.00000m    220.6075m  
  478.00000m    215.8272m  
  479.00000m    211.0626m  
  480.00000m    206.3150m  
  481.00000m    201.5859m  
  482.00000m    196.8768m  
  483.00000m    192.1895m  
  484.00000m    187.5261m  
  485.00000m    182.8886m  
  486.00000m    178.2795m  
  487.00000m    173.7014m  
  488.00000m    169.1572m  
  489.00000m    164.6503m  
  490.00000m    160.1842m  
  491.00000m    155.7628m  
  492.00000m    151.3904m  
  493.00000m    147.0718m  
  494.00000m    142.8120m  
  495.00000m    138.6166m  
  496.00000m    134.4913m  
  497.00000m    130.4423m  
  498.00000m    126.4760m  
  499.00000m    122.5989m  
  500.00000m    118.8175m  
  501.00000m    115.1379m  
  502.00000m    111.5662m  
  503.00000m    108.1076m  
  504.00000m    104.7666m  
  505.00000m    101.5468m  
  506.00000m     98.4507m  
  507.00000m     95.4795m  
  508.00000m     92.6332m  
  509.00000m     89.9108m  
  510.00000m     87.3099m  
  511.00000m     84.8274m  
  512.00000m     82.4595m  
  513.00000m     80.2016m  
  514.00000m     78.0487m  
  515.00000m     75.9957m  
  516.00000m     74.0372m  
  517.00000m     72.1680m  
  518.00000m     70.3828m  
  519.00000m     68.6766m  
  520.00000m     67.0445m  
  521.00000m     65.4821m  
  522.00000m     63.9848m  
  523.00000m     62.5487m  
  524.00000m     61.1700m  
  525.00000m     59.8451m  
  526.00000m     58.5708m  
  527.00000m     57.3440m  
  528.00000m     56.1619m  
  529.00000m     55.0220m  
  530.00000m     53.9217m  
  531.00000m     52.8589m  
  532.00000m     51.8314m  
  533.00000m     50.8374m  
  534.00000m     49.8751m  
  535.00000m     48.9427m  
  536.00000m     48.0389m  
  537.00000m     47.1622m  
  538.00000m     46.3111m  
  539.00000m     45.4846m  
  540.00000m     44.6814m  
  541.00000m     43.9004m  
  542.00000m     43.1407m  
  543.00000m     42.4013m  
  544.00000m     41.6813m  
  545.00000m     40.9799m  
  546.00000m     40.2963m  
  547.00000m     39.6297m  
  548.00000m     38.9796m  
  549.00000m     38.3451m  
  550.00000m     37.7258m  
  551.00000m     37.1210m  
  552.00000m     36.5302m  
  553.00000m     35.9528m  
  554.00000m     35.3884m  
  555.00000m     34.8365m  
  556.00000m     34.2967m  
  557.00000m     33.7685m  
  558.00000m     33.2516m  
  559.00000m     32.7455m  
  560.00000m     32.2499m  
  561.00000m     31.7645m  
  562.00000m     31.2889m  
  563.00000m     30.8228m  
  564.00000m     30.3659m  
  565.00000m     29.9180m  
  566.00000m     29.4787m  
  567.00000m     29.0479m  
  568.00000m     28.6251m  
  569.00000m     28.2103m  
  570.00000m     27.8032m  
  571.00000m     27.4035m  
  572.00000m     27.0111m  
  573.00000m     26.6258m  
  574.00000m     26.2472m  
  575.00000m     25.8754m  
  576.00000m     25.5100m  
  577.00000m     25.1510m  
  578.00000m     24.7981m  
  579.00000m     24.4512m  
  580.00000m     24.1102m  
  581.00000m     23.7748m  
  582.00000m     23.4450m  
  583.00000m     23.1206m  
  584.00000m     22.8014m  
  585.00000m     22.4874m  
  586.00000m     22.1785m  
  587.00000m     21.8744m  
  588.00000m     21.5751m  
  589.00000m     21.2805m  
  590.00000m     20.9905m  
  591.00000m     20.7049m  
  592.00000m     20.4237m  
  593.00000m     20.1468m  
  594.00000m     19.8741m  
  595.00000m     19.6054m  
  596.00000m     19.3407m  
  597.00000m     19.0800m  
  598.00000m     18.8230m  
  599.00000m     18.5698m  
  600.00000m     18.3203m  
  601.00000m     18.0743m  
  602.00000m     17.8319m  
  603.00000m     17.5929m  
  604.00000m     17.3574m  
  605.00000m     17.1251m  
  606.00000m     16.8960m  
  607.00000m     16.6702m  
  608.00000m     16.4474m  
  609.00000m     16.2278m  
  610.00000m     16.0111m  
  611.00000m     15.7974m  
  612.00000m     15.5865m  
  613.00000m     15.3785m  
  614.00000m     15.1733m  
  615.00000m     14.9709m  
  616.00000m     14.7711m  
  617.00000m     14.5739m  
  618.00000m     14.3794m  
  619.00000m     14.1874m  
  620.00000m     13.9979m  
  621.00000m     13.8109m  
  622.00000m     13.6263m  
  623.00000m     13.4440m  
  624.00000m     13.2642m  
  625.00000m     13.0866m  
  626.00000m     12.9113m  
  627.00000m     12.7382m  
  628.00000m     12.5673m  
  629.00000m     12.3985m  
  630.00000m     12.2319m  
  631.00000m     12.0674m  
  632.00000m     11.9049m  
  633.00000m     11.7445m  
  634.00000m     11.5860m  
  635.00000m     11.4295m  
  636.00000m     11.2750m  
  637.00000m     11.1223m  
  638.00000m     10.9716m  
  639.00000m     10.8227m  
  640.00000m     10.6756m  
  641.00000m     10.5303m  
  642.00000m     10.3868m  
  643.00000m     10.2451m  
  644.00000m     10.1050m  
  645.00000m      9.9667m  
  646.00000m      9.8301m  
  647.00000m      9.6951m  
  648.00000m      9.5617m  
  649.00000m      9.4300m  
  650.00000m      9.2998m  
  651.00000m      9.1712m  
  652.00000m      9.0442m  
  653.00000m      8.9187m  
  654.00000m      8.7947m  
  655.00000m      8.6721m  
  656.00000m      8.5511m  
  657.00000m      8.4315m  
  658.00000m      8.3134m  
  659.00000m      8.1966m  
  660.00000m      8.0813m  
  661.00000m      7.9674m  
  662.00000m      7.8548m  
  663.00000m      7.7436m  
  664.00000m      7.6337m  
  665.00000m      7.5251m  
  666.00000m      7.4178m  
  667.00000m      7.3118m  
  668.00000m      7.2071m  
  669.00000m      7.1037m  
  670.00000m      7.0015m  
  671.00000m      6.9005m  
  672.00000m      6.8008m  
  673.00000m      6.7022m  
  674.00000m      6.6049m  
  675.00000m      6.5087m  
  676.00000m      6.4137m  
  677.00000m      6.3198m  
  678.00000m      6.2271m  
  679.00000m      6.1355m  
  680.00000m      6.0450m  
  681.00000m      5.9557m  
  682.00000m      5.8674m  
  683.00000m      5.7802m  
  684.00000m      5.6941m  
  685.00000m      5.6090m  
  686.00000m      5.5250m  
  687.00000m      5.4420m  
  688.00000m      5.3600m  
  689.00000m      5.2791m  
  690.00000m      5.1991m  
  691.00000m      5.1202m  
  692.00000m      5.0422m  
  693.00000m      4.9653m  
  694.00000m      4.8892m  
  695.00000m      4.8142m  
  696.00000m      4.7401m  
  697.00000m      4.6669m  
  698.00000m      4.5946m  
  699.00000m      4.5233m  
  700.00000m      4.4529m  
  701.00000m      4.3834m  
  702.00000m      4.3147m  
  703.00000m      4.2470m  
  704.00000m      4.1801m  
  705.00000m      4.1141m  
  706.00000m      4.0490m  
  707.00000m      3.9847m  
  708.00000m      3.9212m  
  709.00000m      3.8586m  
  710.00000m      3.7967m  
  711.00000m      3.7358m  
  712.00000m      3.6756m  
  713.00000m      3.6162m  
  714.00000m      3.5576m  
  715.00000m      3.4998m  
  716.00000m      3.4427m  
  717.00000m      3.3865m  
  718.00000m      3.3310m  
  719.00000m      3.2762m  
  720.00000m      3.2222m  
  721.00000m      3.1690m  
  722.00000m      3.1164m  
  723.00000m      3.0646m  
  724.00000m      3.0135m  
  725.00000m      2.9631m  
  726.00000m      2.9134m  
  727.00000m      2.8644m  
  728.00000m      2.8161m  
  729.00000m      2.7685m  
  730.00000m      2.7216m  
  731.00000m      2.6753m  
  732.00000m      2.6297m  
  733.00000m      2.5847m  
  734.00000m      2.5404m  
  735.00000m      2.4967m  
  736.00000m      2.4536m  
  737.00000m      2.4112m  
  738.00000m      2.3694m  
  739.00000m      2.3282m  
  740.00000m      2.2876m  
  741.00000m      2.2476m  
  742.00000m      2.2082m  
  743.00000m      2.1694m  
  744.00000m      2.1312m  
  745.00000m      2.0935m  
  746.00000m      2.0564m  
  747.00000m      2.0199m  
  748.00000m      1.9839m  
  749.00000m      1.9485m  
  750.00000m      1.9136m  
  751.00000m      1.8793m  
  752.00000m      1.8455m  
  753.00000m      1.8122m  
  754.00000m      1.7794m  
  755.00000m      1.7471m  
  756.00000m      1.7154m  
  757.00000m      1.6841m  
  758.00000m      1.6534m  
  759.00000m      1.6231m  
  760.00000m      1.5933m  
  761.00000m      1.5640m  
  762.00000m      1.5351m  
  763.00000m      1.5068m  
  764.00000m      1.4788m  
  765.00000m      1.4514m  
  766.00000m      1.4243m  
  767.00000m      1.3978m  
  768.00000m      1.3716m  
  769.00000m      1.3459m  
  770.00000m      1.3206m  
  771.00000m      1.2958m  
  772.00000m      1.2713m  
  773.00000m      1.2473m  
  774.00000m      1.2236m  
  775.00000m      1.2004m  
  776.00000m      1.1775m  
  777.00000m      1.1551m  
  778.00000m      1.1330m  
  779.00000m      1.1113m  
  780.00000m      1.0900m  
  781.00000m      1.0690m  
  782.00000m      1.0484m  
  783.00000m      1.0282m  
  784.00000m      1.0083m  
  785.00000m    988.7130u  
  786.00000m    969.5093u  
  787.00000m    950.6425u  
  788.00000m    932.1080u  
  789.00000m    913.9009u  
  790.00000m    896.0164u  
  791.00000m    878.4499u  
  792.00000m    861.1967u  
  793.00000m    844.2521u  
  794.00000m    827.6116u  
  795.00000m    811.2705u  
  796.00000m    795.2245u  
  797.00000m    779.4690u  
  798.00000m    763.9997u  
  799.00000m    748.8121u  
  800.00000m    733.9018u  
  801.00000m    719.2648u  
  802.00000m    704.8965u  
  803.00000m    690.7930u  
  804.00000m    676.9500u  
  805.00000m    663.3633u  
  806.00000m    650.0290u  
  807.00000m    636.9430u  
  808.00000m    624.1013u  
  809.00000m    611.5000u  
  810.00000m    599.1352u  
  811.00000m    587.0030u  
  812.00000m    575.0996u  
  813.00000m    563.4213u  
  814.00000m    551.9643u  
  815.00000m    540.7250u  
  816.00000m    529.6997u  
  817.00000m    518.8849u  
  818.00000m    508.2770u  
  819.00000m    497.8725u  
  820.00000m    487.6679u  
  821.00000m    477.6600u  
  822.00000m    467.8452u  
  823.00000m    458.2202u  
  824.00000m    448.7819u  
  825.00000m    439.5269u  
  826.00000m    430.4521u  
  827.00000m    421.5543u  
  828.00000m    412.8303u  
  829.00000m    404.2773u  
  830.00000m    395.8920u  
  831.00000m    387.6716u  
  832.00000m    379.6131u  
  833.00000m    371.7136u  
  834.00000m    363.9703u  
  835.00000m    356.3803u  
  836.00000m    348.9409u  
  837.00000m    341.6493u  
  838.00000m    334.5029u  
  839.00000m    327.4991u  
  840.00000m    320.6351u  
  841.00000m    313.9084u  
  842.00000m    307.3166u  
  843.00000m    300.8571u  
  844.00000m    294.5274u  
  845.00000m    288.3252u  
  846.00000m    282.2480u  
  847.00000m    276.2936u  
  848.00000m    270.4596u  
  849.00000m    264.7438u  
  850.00000m    259.1439u  
  851.00000m    253.6578u  
  852.00000m    248.2833u  
  853.00000m    243.0182u  
  854.00000m    237.8606u  
  855.00000m    232.8083u  
  856.00000m    227.8593u  
  857.00000m    223.0116u  
  858.00000m    218.2634u  
  859.00000m    213.6126u  
  860.00000m    209.0575u  
  861.00000m    204.5961u  
  862.00000m    200.2266u  
  863.00000m    195.9473u  
  864.00000m    191.7564u  
  865.00000m    187.6521u  
  866.00000m    183.6329u  
  867.00000m    179.6969u  
  868.00000m    175.8426u  
  869.00000m    172.0684u  
  870.00000m    168.3727u  
  871.00000m    164.7540u  
  872.00000m    161.2107u  
  873.00000m    157.7413u  
  874.00000m    154.3444u  
  875.00000m    151.0185u  
  876.00000m    147.7622u  
  877.00000m    144.5742u  
  878.00000m    141.4530u  
  879.00000m    138.3974u  
  880.00000m    135.4061u  
  881.00000m    132.4776u  
  882.00000m    129.6109u  
  883.00000m    126.8045u  
  884.00000m    124.0574u  
  885.00000m    121.3684u  
  886.00000m    118.7362u  
  887.00000m    116.1597u  
  888.00000m    113.6378u  
  889.00000m    111.1694u  
  890.00000m    108.7534u  
  891.00000m    106.3887u  
  892.00000m    104.0744u  
  893.00000m    101.8093u  
  894.00000m     99.5924u  
  895.00000m     97.4229u  
  896.00000m     95.2997u  
  897.00000m     93.2218u  
  898.00000m     91.1884u  
  899.00000m     89.1985u  
  900.00000m     87.2513u  
  901.00000m     85.3459u  
  902.00000m     83.4814u  
  903.00000m     81.6569u  
  904.00000m     79.8717u  
  905.00000m     78.1250u  
  906.00000m     76.4159u  
  907.00000m     74.7436u  
  908.00000m     73.1075u  
  909.00000m     71.5068u  
  910.00000m     69.9407u  
  911.00000m     68.4085u  
  912.00000m     66.9095u  
  913.00000m     65.4431u  
  914.00000m     64.0085u  
  915.00000m     62.6051u  
  916.00000m     61.2322u  
  917.00000m     59.8893u  
  918.00000m     58.5756u  
  919.00000m     57.2907u  
  920.00000m     56.0337u  
  921.00000m     54.8043u  
  922.00000m     53.6018u  
  923.00000m     52.4257u  
  924.00000m     51.2753u  
  925.00000m     50.1503u  
  926.00000m     49.0499u  
  927.00000m     47.9738u  
  928.00000m     46.9214u  
  929.00000m     45.8921u  
  930.00000m     44.8856u  
  931.00000m     43.9014u  
  932.00000m     42.9389u  
  933.00000m     41.9977u  
  934.00000m     41.0774u  
  935.00000m     40.1775u  
  936.00000m     39.2976u  
  937.00000m     38.4373u  
  938.00000m     37.5962u  
  939.00000m     36.7737u  
  940.00000m     35.9697u  
  941.00000m     35.1836u  
  942.00000m     34.4150u  
  943.00000m     33.6637u  
  944.00000m     32.9293u  
  945.00000m     32.2113u  
  946.00000m     31.5094u  
  947.00000m     30.8233u  
  948.00000m     30.1527u  
  949.00000m     29.4972u  
  950.00000m     28.8565u  
  951.00000m     28.2303u  
  952.00000m     27.6182u  
  953.00000m     27.0201u  
  954.00000m     26.4354u  
  955.00000m     25.8641u  
  956.00000m     25.3058u  
  957.00000m     24.7601u  
  958.00000m     24.2270u  
  959.00000m     23.7059u  
  960.00000m     23.1968u  
  961.00000m     22.6994u  
  962.00000m     22.2134u  
  963.00000m     21.7385u  
  964.00000m     21.2745u  
  965.00000m     20.8212u  
  966.00000m     20.3783u  
  967.00000m     19.9457u  
  968.00000m     19.5231u  
  969.00000m     19.1102u  
  970.00000m     18.7070u  
  971.00000m     18.3130u  
  972.00000m     17.9283u  
  973.00000m     17.5525u  
  974.00000m     17.1855u  
  975.00000m     16.8270u  
  976.00000m     16.4769u  
  977.00000m     16.1350u  
  978.00000m     15.8012u  
  979.00000m     15.4752u  
  980.00000m     15.1569u  
  981.00000m     14.8460u  
  982.00000m     14.5425u  
  983.00000m     14.2462u  
  984.00000m     13.9570u  
  985.00000m     13.6746u  
  986.00000m     13.3989u  
  987.00000m     13.1298u  
  988.00000m     12.8671u  
  989.00000m     12.6107u  
  990.00000m     12.3604u  
  991.00000m     12.1162u  
  992.00000m     11.8778u  
  993.00000m     11.6452u  
  994.00000m     11.4182u  
  995.00000m     11.1966u  
  996.00000m     10.9805u  
  997.00000m     10.7696u  
  998.00000m     10.5639u  
  999.00000m     10.3632u  
    1.00000      10.1674u  
y
1****** HSPICE -- D-2010.03-SP1 32-BIT (May 26 2010) winnt ******               
 ******  
 first line of the netlist must be blank.

  ******  operating point information tnom=  25.000 temp=  27.000 *****
 ***** operating point status is all       simulation time is     0.     
    node    =voltage      node    =voltage      node    =voltage

 +0:in      =   1.0000  0:out     =  10.1674u 0:vdd     =   1.0000 


 ****  voltage sources

 subckt                        
 element  0:v1       0:vin     
  volts      1.0000     1.0000 
  current   -3.1913n   -1.2929n
  power      3.1913n    1.2929n

     total voltage source power dissipation=    4.4841n       watts




 **** mosfets


 subckt                        
 element  0:m1       0:m2      
 model    0:pmos     0:nmos    
 region       Cutoff     Linear
  id        -3.1903n    3.8387n
  ibs     -9.479e-25  2.442e-25
  ibd        1.0100p  -14.0977a
  vgs        0.         1.0000 
  vds     -999.9898m   10.1674u
  vbs        0.         0.     
  vth     -223.0782m  467.0427m
  vdsat    -45.6338m  276.2682m
  vod      223.0782m  532.9573m
  beta     205.1074u    2.3591m
  gam eff  488.0000m  528.0000m
  gm        75.0396n    1.8202n
  gds       16.5125n  377.5463u
  gmb       20.3570n  978.4334p
  cdtot     44.5063a  126.6759a
  cgtot     47.9724a  113.9911a
  cstot     82.3432a  114.2238a
  cbtot     93.6028a  127.4572a
  cgs       24.7466a   63.1330a
  cgd       15.8660a   50.7839a




          ***** job concluded
1****** HSPICE -- D-2010.03-SP1 32-BIT (May 26 2010) winnt ******               
 ******  
 first line of the netlist must be blank.

  ******  job statistics summary tnom=  25.000 temp=  27.000 *****

  ******  HSPICE Threads Information  ******

  Command Line Threads Count                  :     1
  Available CPU Count                         :     4
  Actual Model Evaluation(Load) Threads Count :     1
  Actual Solver Threads Count                 :     1


  ******  Circuit Statistics  ******
  # nodes       =      12 # elements   =       4
  # resistors   =       0 # capacitors =       0 # inductors   =       0
  # mutual_inds =       0 # vccs       =       0 # vcvs        =       0
  # cccs        =       0 # ccvs       =       0 # volt_srcs   =       2
  # curr_srcs   =       0 # diodes     =       0 # bjts        =       0
  # jfets       =       0 # mosfets    =       2 # U elements  =       0
  # T elements  =       0 # W elements =       0 # B elements  =       0
  # S elements  =       0 # P elements =       0 # va device   =       0


  ******  Runtime Statistics (seconds)  ******

  analysis           time    # points   tot. iter  conv.iter
  op point           0.01           1           7
  dc sweep           0.04         991        1988
  readin             0.05
  errchk             0.01
  setup              0.01
  output             0.00


           total memory used          182  kbytes
           total cpu time            0.14 seconds
           total elapsed time        0.19 seconds
           job started at     13:48:55 10/31/2014
           job ended   at     13:48:55 10/31/2014


  lic: Release hspice token(s) 
