 ****** HSPICE -- D-2010.03-SP1 32-BIT (May 26 2010) winnt ******               
  Copyright (C) 2010 Synopsys, Inc. All Rights Reserved.                        
  Unpublished-rights reserved under US copyright laws.
  This program is protected by law and is subject to the 
  terms and conditions of the license agreement from Synopsys.
  Use of this program is your acceptance to be bound by the 
  license agreement. HSPICE is the trademark of Synopsys, Inc.
  Input File: d:\digital electronic\projects\ca_2\full_adder_static_power_temp_1
  lic:  
  lic: FLEXlm: v8.5b 
  lic: USER:   HP                   HOSTNAME: ProBook 
  lic: HOSTID: "00090faa0001 56db30007c95 16db30007c95 a4db30007c95 a45d36cb5ab9
  
  lic: Using FLEXlm license file: 
  lic: 27000@elena 
  lic: Checkout 1 hspice 
  lic: License/Maintenance for hspice will expire on 31-dec-2020/2007.9 
  lic: NODE LOCKED license on hostid "00090faa0001 56db30007c95 16db30007c95 a4d
 b
  lic:   
 Init: read install configuration file: C:\synopsys\Hspice_D-2010.03-SP1\meta.cfg
1****** HSPICE -- D-2010.03-SP1 32-BIT (May 26 2010) winnt ******               
 ******  
 first line of the netlist must be blank.

  ******  circuit name directory
 circuit number to circuit name directory
   number circuitname                     definition         multiplier
        0 main circuit
        1 x_cout.                         inverter           1.00 
        2 x_sum.                          inverter           1.00 
 ***************************************************************************
 ***        model parameters  model name:   0:pmos.6   model type:pmos   ***
 ***************************************************************************

   *** general parameters ***
    deriv=   0.           

   ***  level 49  model parameters  ***

       hspver=    2006.03               level=         49         
      version=        3.1            paramchk=          0         
       apwarn=          1                lite=          0         
       vgslim=          0             binUnit=          2         
       capMod=          0               xpart=          1         
       mobMod=          1              nqsMod=          0         
       stiMod=          0                 elm=          5         
     sfvtflag=          0                 tox=  4.08e-009 meter   
           xj=   1.7e-007 meter       binflag=          0         
         lmin=   1.8e-007 meter          lmax=     5e-007 meter   
         wmin=   1.3e-006 meter          wmax=  1.01e-005 meter   
         lref=          0 meter          wref=          0 meter   
         lint=   1.5e-008 meter          wint=   1.5e-008 meter   
        lmult=          1               wmult=          1         
           ll=          0                 lln=          1         
           lw=          0                 lwn=          1         
          lwl=          0                  wl=          0         
          wln=          1                  ww=          0         
          wwn=          1                 wwl=          0         
          dwg=          0 m/V             dwb=          0 m/V^1/2 
           xl=    -2e-008                  xw=          0         
           a0=    1.27343                 ags=       0.02 V^-1    
           b0=          0 meter            b1=          0 meter   
         keta=  0.0150006 V^-1           voff=  -0.130818 V       
        ngate=          0 cm^-3           vbx=          0 V       
          vbm=         -3 V                xt=  1.55e-007 meter   
         vth0=  -0.449372 V               nch=   3.9e+017 cm^-3   
         nsub=     6e+016 cm^-3           nlx=          0 meter   
       gamma1=          0 V^-1/2       gamma2=          0 V^-1/2  
           k1=   0.517892 V^1/2            k2=  0.0428098         
           k3=          0                 k3b=          0 V^-1    
           w0=          0 meter          dvt0=          0         
         dvt1=          0                dvt2=          0 V^-1    
        dvt0w=          0 meter^-1      dvt1w=          0 meter^-1
        dvt2w=          0 V^-1           dsub=          0         
         eta0=-0.00046875                etab= 0.00113675 V^-1    
           u0=  0.0098319 m^2/V/sec         ua=9.4993e-010 m/V     
           ub=4.95858e-019 (m/V)^2          uc=-1.5879e-010 V^-1    
         vsat=     130813 m/sec            a1=          0 v^-1    
           a2=        0.4               delta=       0.01 V       
         rdsw=        530 ohm-um         prwg=          0 V^-1    
         prwb=          0 V^-1/2           wr=          1         
         pclm=    0.91154             pdiblc1=     1e-006         
      pdiblc2= 0.00796875             pdiblcb=       0.01 V^-1    
       pscbe1=   3.5e+008 V/m          pscbe2=     5e-007 V/m     
        drout=          0                pvag=          0         
      nfactor=          1                cdsc=          0 f/m^2   
        cdscb=          0 f/V/m^2       cdscd=          0 f/V/m^2 
          cit=-6.28086e-005 f/m^2        alpha0=8.93496e-007 m/V     
        beta0=    22.6783 V               dlc=     2e-009 meter   
          dwc=   1.5e-008 meter           clc=     1e-007 meter   
          cle=        0.6                cgso=  3.28e-010 f/m     
         cgdo=  3.28e-010 f/m            cgbo=2.53907e-010 f/m     
         cgsl=          0 f/m            cgdl=          0 f/m     
       ckappa=        0.6                  cf=          0 f/m     
      vfbflag=          1               vfbcv=           Vfb      
         tnom=     298.15 K               kt1=   -0.23689 V       
         kt1l=          0                 kt2=   -0.02568         
          ute=  -0.721369                 ua1= 1.224e-009 m/V     
          ub1=-1.35253e-018 (m/V)^2         uc1=7.19149e-011 m/V^2   
           at=      10000 m/s             prt=          0         
          using Hspice noise model           nlev=          3         
           af=      1.252                  kf= 9.267e-024         
       gdsnoi=-1.23457e-029         
          using Berkeley diodes          using ACM 
          acm=        12                 hdif=    2e-007 meter    
         ldif=    9e-008 meter             js= 4.92e-006 amp/m^2  
          jsw=    9e-010 amp/m            xti=         3          
           nj=         1                   cj=  0.001121 f/m^2    
           mj=    0.4476                   pb=  0.895226 V        
         cjsw=2.481e-010 f/m             mjsw=  0.368362          
          php (not used)                  pbsw=  0.895226 V        
       cjgate (not used)                 cjswg=4.221e-010 f/m      
        mjswg=  0.368362                pbswg=  0.895226 V        
          la0=3.36969e-009               lketa=-5.83136e-010         
        lvoff=1.55427e-010               lvth0=-8.06576e-009         
          lk1=1.88712e-008                 lk2=-6.75856e-009         
        leta0=2.55938e-010               letab=-5.56539e-010         
          lu0=-1.29165e-010                 lua=-1.785e-016         
          lub=1.37311e-025                 luc=1.95859e-017         
        lvsat=-0.000365624               lpclm=3.9807e-008         
     lpdiblc2=9.14062e-010                lcit=1.18189e-010         
         lkt1=-2.46349e-009                lkt2=-7.62232e-011         
         lute=5.38701e-010                lub1=2.54921e-026         
         luc1=-7.86928e-018                 wa0=-5.00174e-007         
        wketa=8.66115e-009               wvoff=5.51816e-009         
        wvth0=1.06796e-008                 wk1=1.44513e-007         
          wk2=-5.28371e-008               wetab=-5.90396e-010         
          wu0=-2.92769e-009                 wua=-7.67988e-016         
          wub=4.3796e-025                 wuc=2.92279e-017         
        wpclm=-1.31009e-008                wcit=2.21978e-010         
         wkt1=2.01412e-008                wkt2=8.08905e-009         
         wute=1.23065e-007                wub1=-2.57544e-025         
         wuc1=-4.96378e-017                 pa0=1.27884e-013         
        pketa=-2.4688e-015               pvoff=-1.90571e-015         
        pvth0=-1.7426e-015                 pk1=-2.05709e-014         
          pk2=8.79696e-015               petab=2.65679e-016         
          pu0=3.01257e-016                 pua=1.84541e-022         
          pub=-1.52856e-031                 puc=-1.08196e-023         
        ppclm=5.8954e-015                pcit=-8.55422e-017         
         pkt1=-2.00901e-015                pkt2=-1.55865e-015         
         pute=1.05946e-014                pub1=3.33784e-032         
         puc1=1.01945e-023         
 ***************************************************************************
 ***        model parameters  model name:   0:nmos.12  model type:nmos   ***
 ***************************************************************************

   *** general parameters ***
    deriv=   0.           

   ***  level 49  model parameters  ***

       hspver=    2006.03               level=         49         
      version=        3.1            paramchk=          0         
       apwarn=          1                lite=          0         
       vgslim=          0             binUnit=          2         
       capMod=          0               xpart=          1         
       mobMod=          1              nqsMod=          0         
       stiMod=          0                 elm=          5         
     sfvtflag=          0                 tox=  4.08e-009 meter   
           xj=   1.6e-007 meter       binflag=          0         
         lmin=   1.8e-007 meter          lmax=     5e-007 meter   
         wmin=   2.2e-007 meter          wmax=     6e-007 meter   
         lref=          0 meter          wref=          0 meter   
         lint=     1e-008 meter          wint=     1e-008 meter   
        lmult=          1               wmult=          1         
           ll=          0                 lln=          1         
           lw=          0                 lwn=          1         
          lwl=          0                  wl=          0         
          wln=          1                  ww=          0         
          wwn=          1                 wwl=          0         
          dwg=          0 m/V             dwb=          0 m/V^1/2 
           xl=    -2e-008                  xw=          0         
           a0=   0.309139                 ags=  0.0533449 V^-1    
           b0=          0 meter            b1=          0 meter   
         keta= -0.0298329 V^-1           voff=  -0.118294 V       
        ngate=          0 cm^-3           vbx=          0 V       
          vbm=         -3 V                xt=  1.55e-007 meter   
         vth0=   0.473666 V               nch=   3.9e+017 cm^-3   
         nsub=     6e+016 cm^-3           nlx=          0 meter   
       gamma1=          0 V^-1/2       gamma2=          0 V^-1/2  
           k1=   0.491632 V^1/2            k2=  0.0241211         
           k3=          0                 k3b=          0 V^-1    
           w0=          0 meter          dvt0=          0         
         dvt1=          0                dvt2=          0 V^-1    
        dvt0w=          0 meter^-1      dvt1w=          0 meter^-1
        dvt2w=          0 V^-1           dsub=          0         
         eta0=-0.000262195                etab= 0.00134878 V^-1    
           u0=  0.0372746 m^2/V/sec         ua=-6.55196e-010 m/V     
           ub=2.11511e-018 (m/V)^2          uc=1.21054e-010 V^-1    
         vsat=    85478.7 m/sec            a1=          0 v^-1    
           a2=       0.99               delta=       0.01 V       
         rdsw=        170 ohm-um         prwg=          0 V^-1    
         prwb=          0 V^-1/2           wr=          1         
         pclm=    1.15192             pdiblc1=     1e-006         
      pdiblc2=-0.00702563             pdiblcb=       0.01 V^-1    
       pscbe1=     4e+008 V/m          pscbe2=     1e-006 V/m     
        drout=          0                pvag=          0         
      nfactor=          1                cdsc=          0 f/m^2   
        cdscb=          0 f/V/m^2       cdscd=          0 f/V/m^2 
          cit=0.000291019 f/m^2        alpha0=6.27411e-008 m/V     
        beta0=    11.5926 V               dlc=     3e-009 meter   
          dwc=     1e-008 meter           clc=     1e-007 meter   
          cle=        0.6                cgso= 3.665e-010 f/m     
         cgdo= 3.665e-010 f/m            cgbo=1.69271e-010 f/m     
         cgsl=          0 f/m            cgdl=          0 f/m     
       ckappa=        0.6                  cf=          0 f/m     
      vfbflag=          1               vfbcv=           Vfb      
         tnom=     298.15 K               kt1=  -0.195646 V       
         kt1l=          0                 kt2=  -0.039081         
          ute=   -1.94466                 ua1= 1.224e-009 m/V     
          ub1=-3.08156e-018 (m/V)^2         uc1=-2.39274e-010 m/V^2   
           at=      20000 m/s             prt=          0         
          using Hspice noise model           nlev=          3         
           af=     0.8256                  kf= 9.326e-025         
       gdsnoi=-1.23457e-029         
          using Berkeley diodes          using ACM 
          acm=        12                 hdif=    2e-007 meter    
         ldif=    9e-008 meter             js= 8.38e-006 amp/m^2  
          jsw=  1.6e-011 amp/m            xti=         3          
           nj=         1                   cj=0.00100027 f/m^2    
           mj=  0.359526                   pb=  0.688268 V        
         cjsw=2.04055e-010 f/m             mjsw=  0.200388          
          php (not used)                  pbsw=  0.688268 V        
       cjgate (not used)                 cjswg=3.34055e-010 f/m      
        mjswg=   0.43879                pbswg=  0.688268 V        
          la0=1.06621e-007                lags=-1.53387e-008         
        lketa=4.61416e-010               lvoff=-3.96108e-009         
        lvth0=5.11682e-009                 lk1=3.30818e-008         
          lk2=-1.52713e-008               leta0=1.6661e-010         
        letab=-6.66439e-010                 lu0=1.59926e-009         
          lua=2.34123e-017                 lub=-8.56068e-026         
          luc=-1.54502e-017               lvsat=-0.00020462         
        lpclm=7.12344e-008            lpdiblc2=5.54738e-009         
         lcit=9.61312e-011                lkt1=-2.85002e-011         
         lkt2=1.8665e-009                lute=4.8145e-008         
         lub1=3.21842e-025                luc1= 5.554e-017         
          wa0=2.62937e-007                wags=-1.00035e-008         
        wketa=4.19031e-009               wvoff=-3.62118e-010         
        wvth0=-2.54604e-009                 wk1=-1.81486e-008         
          wk2=4.13368e-009                 wu0=1.17336e-009         
          wua=4.27813e-017                 wub=-1.03025e-025         
          wuc=-2.88731e-017               wvsat=0.000535754         
        wpclm=1.12421e-007            wpdiblc2=7.8584e-010         
         wcit=-2.50083e-012                wkt1=-1.85501e-008         
         wkt2=2.04501e-009                wute=1.32891e-008         
         wub1=1.45513e-025                wuc1=4.98122e-017         
          pa0=-8.2896e-014                pags=4.6016e-015         
        pketa=-1.78076e-016               pvoff=-4.51263e-016         
        pvth0=7.78622e-016                 pk1=4.16607e-015         
          pk2=-2.21999e-015                 pu0=-1.56466e-017         
          pua=-2.17339e-023                 pub=2.32296e-032         
          puc=3.11796e-024               pvsat=1.1309e-011         
        ppclm=-1.62572e-016            ppdiblc2=-1.03731e-016         
         pcit=1.1504e-018                pkt1=3.11964e-015         
         pkt2=-7.72415e-017                pute=-6.113e-015         
         pub1=-2.88913e-032                puc1=-1.05423e-023         
 ***************************************************************************
 ***        model parameters  model name:   0:pmos.12  model type:pmos   ***
 ***************************************************************************

   *** general parameters ***
    deriv=   0.           

   ***  level 49  model parameters  ***

       hspver=    2006.03               level=         49         
      version=        3.1            paramchk=          0         
       apwarn=          1                lite=          0         
       vgslim=          0             binUnit=          2         
       capMod=          0               xpart=          1         
       mobMod=          1              nqsMod=          0         
       stiMod=          0                 elm=          5         
     sfvtflag=          0                 tox=  4.08e-009 meter   
           xj=   1.7e-007 meter       binflag=          0         
         lmin=   1.8e-007 meter          lmax=     5e-007 meter   
         wmin=   2.2e-007 meter          wmax=     6e-007 meter   
         lref=          0 meter          wref=          0 meter   
         lint=   1.5e-008 meter          wint=   1.5e-008 meter   
        lmult=          1               wmult=          1         
           ll=          0                 lln=          1         
           lw=          0                 lwn=          1         
          lwl=          0                  wl=          0         
          wln=          1                  ww=          0         
          wwn=          1                 wwl=          0         
          dwg=          0 m/V             dwb=          0 m/V^1/2 
           xl=    -2e-008                  xw=          0         
           a0=    1.42473                 ags=    0.03625 V^-1    
           b0=          0 meter            b1=          0 meter   
         keta=   0.031312 V^-1           voff=  -0.128164 V       
        ngate=          0 cm^-3           vbx=          0 V       
          vbm=         -3 V                xt=  1.55e-007 meter   
         vth0=  -0.463924 V               nch=   3.9e+017 cm^-3   
         nsub=     6e+016 cm^-3           nlx=          0 meter   
       gamma1=          0 V^-1/2       gamma2=          0 V^-1/2  
           k1=   0.466995 V^1/2            k2=  0.0588639         
           k3=          0                 k3b=          0 V^-1    
           w0=          0 meter          dvt0=          0         
         dvt1=          0                dvt2=          0 V^-1    
        dvt0w=          0 meter^-1      dvt1w=          0 meter^-1
        dvt2w=          0 V^-1           dsub=          0         
         eta0=-0.00046875                etab=0.000671875 V^-1    
           u0=  0.0106032 m^2/V/sec         ua=1.95012e-009 m/V     
           ub=-4.60397e-019 (m/V)^2          uc=-2.79142e-010 V^-1    
         vsat=     130813 m/sec            a1=          0 v^-1    
           a2=        0.4               delta=       0.01 V       
         rdsw=        530 ohm-um         prwg=          0 V^-1    
         prwb=          0 V^-1/2           wr=          1         
         pclm=   0.965731             pdiblc1=     1e-006         
      pdiblc2=  0.0059375             pdiblcb=       0.01 V^-1    
       pscbe1=   3.5e+008 V/m          pscbe2=     5e-007 V/m     
        drout=          0                pvag=          0         
      nfactor=          1                cdsc=          0 f/m^2   
        cdscb=          0 f/V/m^2       cdscd=          0 f/V/m^2 
          cit=8.53438e-005 f/m^2        alpha0=8.93496e-007 m/V     
        beta0=    22.6783 V               dlc=     2e-009 meter   
          dwc=   1.5e-008 meter           clc=     1e-007 meter   
          cle=        0.6                cgso=  3.28e-010 f/m     
         cgdo=  3.28e-010 f/m            cgbo=2.53907e-010 f/m     
         cgsl=          0 f/m            cgdl=          0 f/m     
       ckappa=        0.6                  cf=          0 f/m     
      vfbflag=          1               vfbcv=           Vfb      
         tnom=     298.15 K               kt1=  -0.213807 V       
         kt1l=          0                 kt2= -0.0350727         
          ute=  -0.599398                 ua1= 1.224e-009 m/V     
          ub1=-1.44385e-018 (m/V)^2         uc1=1.97007e-010 m/V^2   
           at=      10000 m/s             prt=          0         
          using Hspice noise model           nlev=          3         
           af=      1.252                  kf= 9.267e-024         
       gdsnoi=-1.23457e-029         
          using Berkeley diodes          using ACM 
          acm=        12                 hdif=    2e-007 meter    
         ldif=    9e-008 meter             js= 4.92e-006 amp/m^2  
          jsw=    9e-010 amp/m            xti=         3          
           nj=         1                   cj=  0.001121 f/m^2    
           mj=    0.4476                   pb=  0.895226 V        
         cjsw=2.481e-010 f/m             mjsw=  0.368362          
          php (not used)                  pbsw=  0.895226 V        
       cjgate (not used)                 cjswg=4.221e-010 f/m      
        mjswg=  0.368362                pbswg=  0.895226 V        
          la0=6.05288e-009                lags=-7.3125e-009         
        lketa=-5.16184e-009               lvoff=-5.91609e-009         
        lvth0=5.38107e-010                 lk1=1.45905e-008         
          lk2=-3.556e-009               leta0=2.55938e-010         
        letab=-3.47344e-010                 lu0=-3.30242e-010         
          lua=-2.51766e-016                 lub=2.48836e-025         
          luc=3.17066e-017               lvsat=-0.000365626         
        lpclm=1.54212e-008            lpdiblc2=1.82813e-009         
         lcit=5.42953e-011                lkt1=-2.11408e-009         
         lkt2=2.67095e-009                lute= -5.86e-010         
         lub1=-1.13609e-026                luc1=-2.35622e-017         
          wa0=3.5728e-008               wketa=-1.25751e-009         
        wvoff=2.48258e-009               wvth0=8.41494e-009         
          wk1=8.05894e-009                 wk2=-3.77675e-009         
          wu0=-8.74775e-010                 wua=-4.01758e-016         
          wub=1.33977e-025                 wuc=5.52361e-018         
        wpclm=4.02174e-009                wkt1=-3.18668e-009         
         wkt2=3.65278e-009                wute=-4.50547e-008         
         wub1=-2.01983e-027                wuc1=-3.10897e-017         
          pa0=-5.26953e-015               pketa=6.47119e-016         
        pvoff=1.26195e-015               pvth0=-2.69537e-015         
          pk1=3.57783e-015                 pk2=-2.00502e-015         
          pu0=1.17808e-016                 pua=5.47148e-023         
          pub=-6.52837e-032                 puc=-7.6012e-024         
        ppclm=-1.80978e-015                pkt1=-8.46899e-016         
         pkt2=-9.23643e-016                pute=5.17958e-015         
         pub1=1.65815e-032                puc1=5.34039e-024         
 

 
      
 **info** set option symb=1 internally to help for convergence.
 *****************************************************************
 ******  option summary
 ******
 runlvl  = 3         bypass  = 2         
  Opening plot unit= 79
 file=d:\digital electronic\projects\ca_2\full_adder_static_power_temp_100\dyna

1****** HSPICE -- D-2010.03-SP1 32-BIT (May 26 2010) winnt ******               
 ******  
 first line of the netlist must be blank.

  ******  operating point information tnom=  25.000 temp= 100.000 *****
 ***** operating point status is all       simulation time is     0.     
    node    =voltage      node    =voltage      node    =voltage

 +0:a       =   0.      0:b       =   1.8000  0:cin     =   1.8000 
 +0:cout    =   1.8000  0:cout_bar=   1.0674u 0:drain_n_= 533.7177n
 +0:drain_n_=   1.0674u 0:drain_n_= 864.6632n 0:drain_n_=   1.4470 
 +0:drain_p_=   1.8000  0:drain_p_=   1.8000  0:drain_p_=   1.8000 
 +0:drain_p_=   1.8000  0:sum     = 316.7144n 0:sum_bar =   1.8000 
 +0:vdd     =   1.8000 


 ****  voltage sources

 subckt                                              
 element  0:v1       0:vina     0:vinb     0:vinc    
  volts      1.8000     0.         1.8000     1.8000 
  current   -1.5780n    0.         0.         0.     
  power      2.8404n    0.         0.         0.     

     total voltage source power dissipation=    2.8404n       watts




 **** mosfets


 subckt                                                                    
 element  0:m_p11    0:m_p12    0:m_p13    0:m_p14    0:m_p1     0:m_p2    
 model    0:pmos.6   0:pmos.6   0:pmos.6   0:pmos.6   0:pmos.6   0:pmos.6  
 region       Cutoff     Linear     Cutoff     Linear     Linear     Linear
  id        -1.2002f -220.7819p   -6.4858f -894.8190p  110.3888p  894.8264p
  ibs      3.041e-24  5.500e-19  1.622e-23    2.2291a    1.6201f    8.7538f
  ibd        1.6204f    1.0797f    8.7561f    4.3759f    1.0805f    4.3804f
  vgs        0.        -1.8000     0.        -1.8000    -1.8000    -1.8000 
  vds     -709.6085n -473.0753n   -3.8347u   -1.9174u  236.5331n    1.9174u
  vbs        0.         0.         0.         0.       709.6085n    3.8347u
  vth     -450.0861m -450.0861m -450.0861m -450.0861m -450.0863m -450.0868m
  vdsat    -50.7705m -783.1501m  -50.7705m -783.1496m -783.1498m -783.1491m
  vod      450.0861m   -1.3499   450.0861m   -1.3499    -1.3499    -1.3499 
  beta     553.5950u  435.0656u  553.5950u  435.0657u  435.0656u  435.0657u
  gam eff  648.0477m  648.0477m  648.0477m  648.0477m  648.0477m  648.0477m
  gm        28.8525f   98.1199p  155.9141f  397.6764p   49.0590p  397.6804p
  gds        1.6914n  467.1706u    1.6913n  467.1697u  467.1705u  467.1693u
  gmb       11.2792f   62.4559p   60.9507f  253.1313p   31.2274p  253.1334p
  cdtot      2.0929f    3.6348f    2.0929f    3.6348f    3.7534f    3.7534f
  cgtot      1.4168f    2.5891f    1.4168f    2.5891f    2.5891f    2.5891f
  cstot      2.0929f    3.7534f    2.0929f    3.7534f    3.6348f    3.6348f
  cbtot      3.9102f    3.9690f    3.9102f    3.9690f    3.9690f    3.9690f
  cgs      423.1200a    1.2747f  423.1200a    1.2747f    1.2747f    1.2747f
  cgd      423.1200a    1.2747f  423.1200a    1.2747f    1.2747f    1.2747f



 subckt                                                                    
 element  0:m_p21    0:m_p22    0:m_p23    0:m_p24    0:m_n11    0:m_n12   
 model    0:pmos.6   0:pmos.6   0:pmos.6   0:pmos.6   0:nmos.12  0:nmos.12 
 region       Cutoff     Cutoff     Linear     Cutoff     Linear     Cutoff
  id      -108.5954p -108.5963p -894.8595p   -6.4856f  371.2438p    4.0106f
  ibs        1.6206f    1.0805f    8.7583f    4.3781f -2.398e-20 -2.591e-25
  ibd       73.4281p   73.4281p   13.1317f   13.1339f  -11.1285a  -22.3045a
  vgs      709.6085n  473.0753n   -1.8000     1.9174u    1.8000     0.     
  vds       -1.8000    -1.8000    -1.9174u   -3.8348u  533.7177n    1.0674u
  vbs      709.6085n  473.0753n    3.8347u    1.9174u    0.         0.     
  vth     -441.9863m -441.9863m -450.0875m -450.0868m  470.3641m  470.3641m
  vdsat    -50.7678m  -50.7678m -783.1477m  -50.7705m  570.3942m   55.8039m
  vod      441.9871m  441.9867m   -1.3499   450.0887m    1.3296  -470.3641m
  beta     554.9552u  554.9552u  435.0658u  553.5949u  750.5553u  919.0678u
  gam eff  648.0477m  648.0477m  648.0477m  648.0477m  968.2416m  968.2416m
  gm         2.6090n    2.6090n  397.6968p  155.9079f  140.5258p   92.1875f
  gds       32.9637p   32.9640p  467.1684u    1.6912n  698.5844u    3.7572n
  gmb      979.5603p  979.5680p  253.1432p   60.9482f   74.6079p   29.9109f
  cdtot      1.5028f    1.5028f    3.6347f    2.0929f    1.2364f  727.3884a
  cgtot      1.4168f    1.4168f    2.5891f    1.4168f  881.3509a  520.8064a
  cstot      2.0929f    2.0929f    3.7533f    2.0929f    1.2805f  727.3887a
  cbtot      3.3200f    3.3200f    3.9690f    3.9102f    1.3925f    1.3599f
  cgs      423.1200a  423.1200a    1.2747f  423.1200a  427.6416a  153.9300a
  cgd      423.1200a  423.1200a    1.2747f  423.1200a  427.6415a  153.9300a



 subckt                                                                    
 element  0:m_n13    0:m_n14    0:m_n1     0:m_n2     0:m_n21    0:m_n22   
 model    0:nmos.12  0:nmos.12  0:nmos.12  0:nmos.12  0:nmos.12  0:nmos.12 
 region       Linear     Cutoff     Cutoff     Cutoff     Linear     Linear
  id       601.4430p  280.2935p    2.0052f  280.2792p  371.2419p    6.0875f
  ibs     -3.885e-20 -1.820e-20  -11.1525a  -18.0860a  -11.1764a  -22.3045a
  ibd      -18.0289a -714.0462f  -22.3045a -714.0438f  -22.2807a  -22.3047a
  vgs        1.8000     1.0674u -533.7177n -864.6632n    1.8000     1.8000 
  vds      864.6632n    1.4470   533.7062n    1.4470   533.7150n    8.7517p
  vbs        0.         0.      -533.7177n -864.6632n -533.7177n   -1.0674u
  vth      470.3641m  466.3361m  470.3642m  466.3364m  470.3642m  470.3644m
  vdsat    570.3942m   55.8022m   55.8039m   55.8022m  570.3940m  570.3939m
  vod        1.3296  -466.3350m -470.3648m -466.3372m    1.3296     1.3296 
  beta     750.5553u  919.4491u  919.0678u  919.4491u  750.5554u  750.5554u
  gam eff  968.2416m  968.2416m  968.2417m  968.2417m  968.2417m  968.2418m
  gm       227.6625p    6.4408n   46.0927f    6.4405n  140.5252p    2.3043f
  gds      698.5838u  104.6321p    3.7572n  104.6269p  698.5842u  698.5848u
  gmb      120.8704p    1.9822n   14.9551f    1.9821n   74.6075p    1.2234f
  cdtot      1.2364f  561.4019a  727.3884a  561.4019a    1.2364f    1.2364f
  cgtot    881.3509a  520.8063a  520.8064a  520.8064a  881.3509a  881.3509a
  cstot      1.2805f  727.3887a  727.3886a  727.3885a    1.2805f    1.2805f
  cbtot      1.3925f    1.1939f    1.3599f    1.1939f    1.3925f    1.3925f
  cgs      427.6416a  153.9300a  153.9300a  153.9300a  427.6416a  427.6416a
  cgd      427.6415a  153.9300a  153.9300a  153.9300a  427.6415a  427.6416a



 subckt                         x_cout     x_cout     x_sum      x_sum     
 element  0:m_n23    0:m_n24    1:mn       1:mp       2:mn       2:mp      
 model    0:nmos.12  0:nmos.12  0:nmos.12  0:pmos.12  0:nmos.12  0:pmos.12 
 region       Cutoff     Cutoff     Cutoff     Linear     Linear     Cutoff
  id       317.9168p  569.5548p  192.2506p -196.5254p  115.3576p  -75.9063p
  ibs      -18.0884a -671.9036f -1.819e-20  7.171e-19 -1.081e-20  2.835e-19
  ibd     -994.9178f -671.9036f -676.2642f    1.3754f   -4.7920a   35.8513p
  vgs      202.7695n  352.9810m    1.0674u   -1.8000     1.8000    -5.7522u
  vds        1.8000   352.9753m    1.8000    -1.2343u  316.7144n   -1.8000 
  vbs     -864.6632n   -1.4470     0.         0.         0.         0.     
  vth      465.3538m  751.5198m  475.7108m -426.0035m  480.7213m -417.9035m
  vdsat     55.8018m   58.6560m   63.7619m -785.1110m  577.2961m  -51.8412m
  vod     -465.3536m -398.5388m -475.7097m   -1.3740     1.3193   417.8978m
  beta     919.5406u  878.2265u  483.7714u  148.4506u  412.7158u  174.2467u
  gam eff  968.2417m    1.1005     1.0565   694.8753m    1.0565   694.8753m
  gm         7.3047n   13.8716n    4.4089n   95.3778p   42.9488p    1.8179n
  gds      108.9966p  599.9814p   65.7271p  159.3811u  365.8798u   24.8402p
  gmb        2.2210n    1.9782n    1.2872n   55.8882p   22.4104p  655.3035p
  cdtot    543.4014a  543.4014a  330.8024a    1.3117f  684.6134a  580.2071a
  cgtot    520.8063a  452.8409a  264.0355a  849.8988a  433.3455a  477.6982a
  cstot    727.3885a  561.4019a  440.3512a    1.3502f  706.4812a  819.9240a
  cbtot      1.1759f  941.9242a  741.9892a    1.6018f  868.9110a    1.3399f
  cgs      153.9300a  153.9300a   73.3000a  405.1448a  203.6389a  134.4800a
  cgd      153.9300a  153.9300a   73.3000a  405.1446a  203.6388a  134.4800a



 ******  
 first line of the netlist must be blank.

  ******  transient analysis tnom=  25.000 temp= 100.000 *****
   pow=  2.7942E-09  from=  1.0000E-09     to=  1.7000E-07
x

        time    voltage      voltage      voltage      voltage    
                    sum         cout           a            b     
    0.            0.           1.8000       0.           1.8000   
   10.00000p      0.           1.8000       0.           1.8000   
   20.00000p      0.           1.8000       0.           1.8000   
   30.00000p      0.           1.8000       0.           1.8000   
   40.00000p      0.           1.8000       0.           1.8000   
   50.00000p      0.           1.8000       0.           1.8000   
   60.00000p      0.           1.8000       0.           1.8000   
   70.00000p      0.           1.8000       0.           1.8000   
   80.00000p      0.           1.8000       0.           1.8000   
   90.00000p      0.           1.8000       0.           1.8000   
  100.00000p      0.           1.8000       0.           1.8000   
  110.00000p      0.           1.8000       0.           1.8000   
  120.00000p      0.           1.8000       0.           1.8000   
  130.00000p      0.           1.8000       0.           1.8000   
  140.00000p      0.           1.8000       0.           1.8000   
  150.00000p      0.           1.8000       0.           1.8000   
  160.00000p      0.           1.8000       0.           1.8000   
  170.00000p      0.           1.8000       0.           1.8000   
  180.00000p      0.           1.8000       0.           1.8000   
  190.00000p      0.           1.8000       0.           1.8000   
  200.00000p      0.           1.8000       0.           1.8000   
  210.00000p      0.           1.8000       0.           1.8000   
  220.00000p      0.           1.8000       0.           1.8000   
  230.00000p      0.           1.8000       0.           1.8000   
  240.00000p      0.           1.8000       0.           1.8000   
  250.00000p      0.           1.8000       0.           1.8000   
  260.00000p      0.           1.8000       0.           1.8000   
  270.00000p      0.           1.8000       0.           1.8000   
  280.00000p      0.           1.8000       0.           1.8000   
  290.00000p      0.           1.8000       0.           1.8000   
  300.00000p      0.           1.8000       0.           1.8000   
  310.00000p      0.           1.8000       0.           1.8000   
  320.00000p      0.           1.8000       0.           1.8000   
  330.00000p      0.           1.8000       0.           1.8000   
  340.00000p      0.           1.8000       0.           1.8000   
  350.00000p      0.           1.8000       0.           1.8000   
  360.00000p      0.           1.8000       0.           1.8000   
  370.00000p      0.           1.8000       0.           1.8000   
  380.00000p      0.           1.8000       0.           1.8000   
  390.00000p      0.           1.8000       0.           1.8000   
  400.00000p      0.           1.8000       0.           1.8000   
  410.00000p      0.           1.8000       0.           1.8000   
  420.00000p      0.           1.8000       0.           1.8000   
  430.00000p      0.           1.8000       0.           1.8000   
  440.00000p      0.           1.8000       0.           1.8000   
  450.00000p      0.           1.8000       0.           1.8000   
  460.00000p      0.           1.8000       0.           1.8000   
  470.00000p      0.           1.8000       0.           1.8000   
  480.00000p      0.           1.8000       0.           1.8000   
  490.00000p      0.           1.8000       0.           1.8000   
  500.00000p      0.           1.8000       0.           1.8000   
  510.00000p      0.           1.8000       0.           1.8000   
  520.00000p      0.           1.8000       0.           1.8000   
  530.00000p      0.           1.8000       0.           1.8000   
  540.00000p      0.           1.8000       0.           1.8000   
  550.00000p      0.           1.8000       0.           1.8000   
  560.00000p      0.           1.8000       0.           1.8000   
  570.00000p      0.           1.8000       0.           1.8000   
  580.00000p      0.           1.8000       0.           1.8000   
  590.00000p      0.           1.8000       0.           1.8000   
  600.00000p      0.           1.8000       0.           1.8000   
  610.00000p      0.           1.8000       0.           1.8000   
  620.00000p      0.           1.8000       0.           1.8000   
  630.00000p      0.           1.8000       0.           1.8000   
  640.00000p      0.           1.8000       0.           1.8000   
  650.00000p      0.           1.8000       0.           1.8000   
  660.00000p      0.           1.8000       0.           1.8000   
  670.00000p      0.           1.8000       0.           1.8000   
  680.00000p      0.           1.8000       0.           1.8000   
  690.00000p      0.           1.8000       0.           1.8000   
  700.00000p      0.           1.8000       0.           1.8000   
  710.00000p      0.           1.8000       0.           1.8000   
  720.00000p      0.           1.8000       0.           1.8000   
  730.00000p      0.           1.8000       0.           1.8000   
  740.00000p      0.           1.8000       0.           1.8000   
  750.00000p      0.           1.8000       0.           1.8000   
  760.00000p      0.           1.8000       0.           1.8000   
  770.00000p      0.           1.8000       0.           1.8000   
  780.00000p      0.           1.8000       0.           1.8000   
  790.00000p      0.           1.8000       0.           1.8000   
  800.00000p      0.           1.8000       0.           1.8000   
  810.00000p      0.           1.8000       0.           1.8000   
  820.00000p      0.           1.8000       0.           1.8000   
  830.00000p      0.           1.8000       0.           1.8000   
  840.00000p      0.           1.8000       0.           1.8000   
  850.00000p      0.           1.8000       0.           1.8000   
  860.00000p      0.           1.8000       0.           1.8000   
  870.00000p      0.           1.8000       0.           1.8000   
  880.00000p      0.           1.8000       0.           1.8000   
  890.00000p      0.           1.8000       0.           1.8000   
  900.00000p      0.           1.8000       0.           1.8000   
  910.00000p      0.           1.8000       0.           1.8000   
  920.00000p      0.           1.8000       0.           1.8000   
  930.00000p      0.           1.8000       0.           1.8000   
  940.00000p      0.           1.8000       0.           1.8000   
  950.00000p      0.           1.8000       0.           1.8000   
  960.00000p      0.           1.8000       0.           1.8000   
  970.00000p      0.           1.8000       0.           1.8000   
  980.00000p      0.           1.8000       0.           1.8000   
  990.00000p      0.           1.8000       0.           1.8000   
    1.00000n      0.           1.8000       0.           1.8000   
    1.01000n      0.           1.8000       0.           1.8000   
    1.02000n      0.           1.8000       0.           1.8000   
    1.03000n      0.           1.8000       0.           1.8000   
    1.04000n      0.           1.8000       0.           1.8000   
    1.05000n      0.           1.8000       0.           1.8000   
    1.06000n      0.           1.8000       0.           1.8000   
    1.07000n      0.           1.8000       0.           1.8000   
    1.08000n      0.           1.8000       0.           1.8000   
    1.09000n      0.           1.8000       0.           1.8000   
    1.10000n      0.           1.8000       0.           1.8000   
    1.11000n      0.           1.8000       0.           1.8000   
    1.12000n      0.           1.8000       0.           1.8000   
    1.13000n      0.           1.8000       0.           1.8000   
    1.14000n      0.           1.8000       0.           1.8000   
    1.15000n      0.           1.8000       0.           1.8000   
    1.16000n      0.           1.8000       0.           1.8000   
    1.17000n      0.           1.8000       0.           1.8000   
    1.18000n      0.           1.8000       0.           1.8000   
    1.19000n      0.           1.8000       0.           1.8000   
    1.20000n      0.           1.8000       0.           1.8000   
    1.21000n      0.           1.8000       0.           1.8000   
    1.22000n      0.           1.8000       0.           1.8000   
    1.23000n      0.           1.8000       0.           1.8000   
    1.24000n      0.           1.8000       0.           1.8000   
    1.25000n      0.           1.8000       0.           1.8000   
    1.26000n      0.           1.8000       0.           1.8000   
    1.27000n      0.           1.8000       0.           1.8000   
    1.28000n      0.           1.8000       0.           1.8000   
    1.29000n      0.           1.8000       0.           1.8000   
    1.30000n      0.           1.8000       0.           1.8000   
    1.31000n      0.           1.8000       0.           1.8000   
    1.32000n      0.           1.8000       0.           1.8000   
    1.33000n      0.           1.8000       0.           1.8000   
    1.34000n      0.           1.8000       0.           1.8000   
    1.35000n      0.           1.8000       0.           1.8000   
    1.36000n      0.           1.8000       0.           1.8000   
    1.37000n      0.           1.8000       0.           1.8000   
    1.38000n      0.           1.8000       0.           1.8000   
    1.39000n      0.           1.8000       0.           1.8000   
    1.40000n      0.           1.8000       0.           1.8000   
    1.41000n      0.           1.8000       0.           1.8000   
    1.42000n      0.           1.8000       0.           1.8000   
    1.43000n      0.           1.8000       0.           1.8000   
    1.44000n      0.           1.8000       0.           1.8000   
    1.45000n      0.           1.8000       0.           1.8000   
    1.46000n      0.           1.8000       0.           1.8000   
    1.47000n      0.           1.8000       0.           1.8000   
    1.48000n      0.           1.8000       0.           1.8000   
    1.49000n      0.           1.8000       0.           1.8000   
    1.50000n      0.           1.8000       0.           1.8000   
    1.51000n      0.           1.8000       0.           1.8000   
    1.52000n      0.           1.8000       0.           1.8000   
    1.53000n      0.           1.8000       0.           1.8000   
    1.54000n      0.           1.8000       0.           1.8000   
    1.55000n      0.           1.8000       0.           1.8000   
    1.56000n      0.           1.8000       0.           1.8000   
    1.57000n      0.           1.8000       0.           1.8000   
    1.58000n      0.           1.8000       0.           1.8000   
    1.59000n      0.           1.8000       0.           1.8000   
    1.60000n      0.           1.8000       0.           1.8000   
    1.61000n      0.           1.8000       0.           1.8000   
    1.62000n      0.           1.8000       0.           1.8000   
    1.63000n      0.           1.8000       0.           1.8000   
    1.64000n      0.           1.8000       0.           1.8000   
    1.65000n      0.           1.8000       0.           1.8000   
    1.66000n      0.           1.8000       0.           1.8000   
    1.67000n      0.           1.8000       0.           1.8000   
    1.68000n      0.           1.8000       0.           1.8000   
    1.69000n      0.           1.8000       0.           1.8000   
    1.70000n      0.           1.8000       0.           1.8000   
    1.71000n      0.           1.8000       0.           1.8000   
    1.72000n      0.           1.8000       0.           1.8000   
    1.73000n      0.           1.8000       0.           1.8000   
    1.74000n      0.           1.8000       0.           1.8000   
    1.75000n      0.           1.8000       0.           1.8000   
    1.76000n      0.           1.8000       0.           1.8000   
    1.77000n      0.           1.8000       0.           1.8000   
    1.78000n      0.           1.8000       0.           1.8000   
    1.79000n      0.           1.8000       0.           1.8000   
    1.80000n      0.           1.8000       0.           1.8000   
    1.81000n      0.           1.8000       0.           1.8000   
    1.82000n      0.           1.8000       0.           1.8000   
    1.83000n      0.           1.8000       0.           1.8000   
    1.84000n      0.           1.8000       0.           1.8000   
    1.85000n      0.           1.8000       0.           1.8000   
    1.86000n      0.           1.8000       0.           1.8000   
    1.87000n      0.           1.8000       0.           1.8000   
    1.88000n      0.           1.8000       0.           1.8000   
    1.89000n      0.           1.8000       0.           1.8000   
    1.90000n      0.           1.8000       0.           1.8000   
    1.91000n      0.           1.8000       0.           1.8000   
    1.92000n      0.           1.8000       0.           1.8000   
    1.93000n      0.           1.8000       0.           1.8000   
    1.94000n      0.           1.8000       0.           1.8000   
    1.95000n      0.           1.8000       0.           1.8000   
    1.96000n      0.           1.8000       0.           1.8000   
    1.97000n      0.           1.8000       0.           1.8000   
    1.98000n      0.           1.8000       0.           1.8000   
    1.99000n      0.           1.8000       0.           1.8000   
    2.00000n      0.           1.8000       0.           1.8000   
    2.01000n      0.           1.8000       0.           1.8000   
    2.02000n      0.           1.8000       0.           1.8000   
    2.03000n      0.           1.8000       0.           1.8000   
    2.04000n      0.           1.8000       0.           1.8000   
    2.05000n      0.           1.8000       0.           1.8000   
    2.06000n      0.           1.8000       0.           1.8000   
    2.07000n      0.           1.8000       0.           1.8000   
    2.08000n      0.           1.8000       0.           1.8000   
    2.09000n      0.           1.8000       0.           1.8000   
    2.10000n      0.           1.8000       0.           1.8000   
    2.11000n      0.           1.8000       0.           1.8000   
    2.12000n      0.           1.8000       0.           1.8000   
    2.13000n      0.           1.8000       0.           1.8000   
    2.14000n      0.           1.8000       0.           1.8000   
    2.15000n      0.           1.8000       0.           1.8000   
    2.16000n      0.           1.8000       0.           1.8000   
    2.17000n      0.           1.8000       0.           1.8000   
    2.18000n      0.           1.8000       0.           1.8000   
    2.19000n      0.           1.8000       0.           1.8000   
    2.20000n      0.           1.8000       0.           1.8000   
    2.21000n      0.           1.8000       0.           1.8000   
    2.22000n      0.           1.8000       0.           1.8000   
    2.23000n      0.           1.8000       0.           1.8000   
    2.24000n      0.           1.8000       0.           1.8000   
    2.25000n      0.           1.8000       0.           1.8000   
    2.26000n      0.           1.8000       0.           1.8000   
    2.27000n      0.           1.8000       0.           1.8000   
    2.28000n      0.           1.8000       0.           1.8000   
    2.29000n      0.           1.8000       0.           1.8000   
    2.30000n      0.           1.8000       0.           1.8000   
    2.31000n      0.           1.8000       0.           1.8000   
    2.32000n      0.           1.8000       0.           1.8000   
    2.33000n      0.           1.8000       0.           1.8000   
    2.34000n      0.           1.8000       0.           1.8000   
    2.35000n      0.           1.8000       0.           1.8000   
    2.36000n      0.           1.8000       0.           1.8000   
    2.37000n      0.           1.8000       0.           1.8000   
    2.38000n      0.           1.8000       0.           1.8000   
    2.39000n      0.           1.8000       0.           1.8000   
    2.40000n      0.           1.8000       0.           1.8000   
    2.41000n      0.           1.8000       0.           1.8000   
    2.42000n      0.           1.8000       0.           1.8000   
    2.43000n      0.           1.8000       0.           1.8000   
    2.44000n      0.           1.8000       0.           1.8000   
    2.45000n      0.           1.8000       0.           1.8000   
    2.46000n      0.           1.8000       0.           1.8000   
    2.47000n      0.           1.8000       0.           1.8000   
    2.48000n      0.           1.8000       0.           1.8000   
    2.49000n      0.           1.8000       0.           1.8000   
    2.50000n      0.           1.8000       0.           1.8000   
    2.51000n      0.           1.8000       0.           1.8000   
    2.52000n      0.           1.8000       0.           1.8000   
    2.53000n      0.           1.8000       0.           1.8000   
    2.54000n      0.           1.8000       0.           1.8000   
    2.55000n      0.           1.8000       0.           1.8000   
    2.56000n      0.           1.8000       0.           1.8000   
    2.57000n      0.           1.8000       0.           1.8000   
    2.58000n      0.           1.8000       0.           1.8000   
    2.59000n      0.           1.8000       0.           1.8000   
    2.60000n      0.           1.8000       0.           1.8000   
    2.61000n      0.           1.8000       0.           1.8000   
    2.62000n      0.           1.8000       0.           1.8000   
    2.63000n      0.           1.8000       0.           1.8000   
    2.64000n      0.           1.8000       0.           1.8000   
    2.65000n      0.           1.8000       0.           1.8000   
    2.66000n      0.           1.8000       0.           1.8000   
    2.67000n      0.           1.8000       0.           1.8000   
    2.68000n      0.           1.8000       0.           1.8000   
    2.69000n      0.           1.8000       0.           1.8000   
    2.70000n      0.           1.8000       0.           1.8000   
    2.71000n      0.           1.8000       0.           1.8000   
    2.72000n      0.           1.8000       0.           1.8000   
    2.73000n      0.           1.8000       0.           1.8000   
    2.74000n      0.           1.8000       0.           1.8000   
    2.75000n      0.           1.8000       0.           1.8000   
    2.76000n      0.           1.8000       0.           1.8000   
    2.77000n      0.           1.8000       0.           1.8000   
    2.78000n      0.           1.8000       0.           1.8000   
    2.79000n      0.           1.8000       0.           1.8000   
    2.80000n      0.           1.8000       0.           1.8000   
    2.81000n      0.           1.8000       0.           1.8000   
    2.82000n      0.           1.8000       0.           1.8000   
    2.83000n      0.           1.8000       0.           1.8000   
    2.84000n      0.           1.8000       0.           1.8000   
    2.85000n      0.           1.8000       0.           1.8000   
    2.86000n      0.           1.8000       0.           1.8000   
    2.87000n      0.           1.8000       0.           1.8000   
    2.88000n      0.           1.8000       0.           1.8000   
    2.89000n      0.           1.8000       0.           1.8000   
    2.90000n      0.           1.8000       0.           1.8000   
    2.91000n      0.           1.8000       0.           1.8000   
    2.92000n      0.           1.8000       0.           1.8000   
    2.93000n      0.           1.8000       0.           1.8000   
    2.94000n      0.           1.8000       0.           1.8000   
    2.95000n      0.           1.8000       0.           1.8000   
    2.96000n      0.           1.8000       0.           1.8000   
    2.97000n      0.           1.8000       0.           1.8000   
    2.98000n      0.           1.8000       0.           1.8000   
    2.99000n      0.           1.8000       0.           1.8000   
    3.00000n      0.           1.8000       0.           1.8000   
    3.01000n      0.           1.8000       0.           1.8000   
    3.02000n      0.           1.8000       0.           1.8000   
    3.03000n      0.           1.8000       0.           1.8000   
    3.04000n      0.           1.8000       0.           1.8000   
    3.05000n      0.           1.8000       0.           1.8000   
    3.06000n      0.           1.8000       0.           1.8000   
    3.07000n      0.           1.8000       0.           1.8000   
    3.08000n      0.           1.8000       0.           1.8000   
    3.09000n      0.           1.8000       0.           1.8000   
    3.10000n      0.           1.8000       0.           1.8000   
    3.11000n      0.           1.8000       0.           1.8000   
    3.12000n      0.           1.8000       0.           1.8000   
    3.13000n      0.           1.8000       0.           1.8000   
    3.14000n      0.           1.8000       0.           1.8000   
    3.15000n      0.           1.8000       0.           1.8000   
    3.16000n      0.           1.8000       0.           1.8000   
    3.17000n      0.           1.8000       0.           1.8000   
    3.18000n      0.           1.8000       0.           1.8000   
    3.19000n      0.           1.8000       0.           1.8000   
    3.20000n      0.           1.8000       0.           1.8000   
    3.21000n      0.           1.8000       0.           1.8000   
    3.22000n      0.           1.8000       0.           1.8000   
    3.23000n      0.           1.8000       0.           1.8000   
    3.24000n      0.           1.8000       0.           1.8000   
    3.25000n      0.           1.8000       0.           1.8000   
    3.26000n      0.           1.8000       0.           1.8000   
    3.27000n      0.           1.8000       0.           1.8000   
    3.28000n      0.           1.8000       0.           1.8000   
    3.29000n      0.           1.8000       0.           1.8000   
    3.30000n      0.           1.8000       0.           1.8000   
    3.31000n      0.           1.8000       0.           1.8000   
    3.32000n      0.           1.8000       0.           1.8000   
    3.33000n      0.           1.8000       0.           1.8000   
    3.34000n      0.           1.8000       0.           1.8000   
    3.35000n      0.           1.8000       0.           1.8000   
    3.36000n      0.           1.8000       0.           1.8000   
    3.37000n      0.           1.8000       0.           1.8000   
    3.38000n      0.           1.8000       0.           1.8000   
    3.39000n      0.           1.8000       0.           1.8000   
    3.40000n      0.           1.8000       0.           1.8000   
    3.41000n      0.           1.8000       0.           1.8000   
    3.42000n      0.           1.8000       0.           1.8000   
    3.43000n      0.           1.8000       0.           1.8000   
    3.44000n      0.           1.8000       0.           1.8000   
    3.45000n      0.           1.8000       0.           1.8000   
    3.46000n      0.           1.8000       0.           1.8000   
    3.47000n      0.           1.8000       0.           1.8000   
    3.48000n      0.           1.8000       0.           1.8000   
    3.49000n      0.           1.8000       0.           1.8000   
    3.50000n      0.           1.8000       0.           1.8000   
    3.51000n      0.           1.8000       0.           1.8000   
    3.52000n      0.           1.8000       0.           1.8000   
    3.53000n      0.           1.8000       0.           1.8000   
    3.54000n      0.           1.8000       0.           1.8000   
    3.55000n      0.           1.8000       0.           1.8000   
    3.56000n      0.           1.8000       0.           1.8000   
    3.57000n      0.           1.8000       0.           1.8000   
    3.58000n      0.           1.8000       0.           1.8000   
    3.59000n      0.           1.8000       0.           1.8000   
    3.60000n      0.           1.8000       0.           1.8000   
    3.61000n      0.           1.8000       0.           1.8000   
    3.62000n      0.           1.8000       0.           1.8000   
    3.63000n      0.           1.8000       0.           1.8000   
    3.64000n      0.           1.8000       0.           1.8000   
    3.65000n      0.           1.8000       0.           1.8000   
    3.66000n      0.           1.8000       0.           1.8000   
    3.67000n      0.           1.8000       0.           1.8000   
    3.68000n      0.           1.8000       0.           1.8000   
    3.69000n      0.           1.8000       0.           1.8000   
    3.70000n      0.           1.8000       0.           1.8000   
    3.71000n      0.           1.8000       0.           1.8000   
    3.72000n      0.           1.8000       0.           1.8000   
    3.73000n      0.           1.8000       0.           1.8000   
    3.74000n      0.           1.8000       0.           1.8000   
    3.75000n      0.           1.8000       0.           1.8000   
    3.76000n      0.           1.8000       0.           1.8000   
    3.77000n      0.           1.8000       0.           1.8000   
    3.78000n      0.           1.8000       0.           1.8000   
    3.79000n      0.           1.8000       0.           1.8000   
    3.80000n      0.           1.8000       0.           1.8000   
    3.81000n      0.           1.8000       0.           1.8000   
    3.82000n      0.           1.8000       0.           1.8000   
    3.83000n      0.           1.8000       0.           1.8000   
    3.84000n      0.           1.8000       0.           1.8000   
    3.85000n      0.           1.8000       0.           1.8000   
    3.86000n      0.           1.8000       0.           1.8000   
    3.87000n      0.           1.8000       0.           1.8000   
    3.88000n      0.           1.8000       0.           1.8000   
    3.89000n      0.           1.8000       0.           1.8000   
    3.90000n      0.           1.8000       0.           1.8000   
    3.91000n      0.           1.8000       0.           1.8000   
    3.92000n      0.           1.8000       0.           1.8000   
    3.93000n      0.           1.8000       0.           1.8000   
    3.94000n      0.           1.8000       0.           1.8000   
    3.95000n      0.           1.8000       0.           1.8000   
    3.96000n      0.           1.8000       0.           1.8000   
    3.97000n      0.           1.8000       0.           1.8000   
    3.98000n      0.           1.8000       0.           1.8000   
    3.99000n      0.           1.8000       0.           1.8000   
    4.00000n      0.           1.8000       0.           1.8000   
    4.01000n      0.           1.8000       0.           1.8000   
    4.02000n      0.           1.8000       0.           1.8000   
    4.03000n      0.           1.8000       0.           1.8000   
    4.04000n      0.           1.8000       0.           1.8000   
    4.05000n      0.           1.8000       0.           1.8000   
    4.06000n      0.           1.8000       0.           1.8000   
    4.07000n      0.           1.8000       0.           1.8000   
    4.08000n      0.           1.8000       0.           1.8000   
    4.09000n      0.           1.8000       0.           1.8000   
    4.10000n      0.           1.8000       0.           1.8000   
    4.11000n      0.           1.8000       0.           1.8000   
    4.12000n      0.           1.8000       0.           1.8000   
    4.13000n      0.           1.8000       0.           1.8000   
    4.14000n      0.           1.8000       0.           1.8000   
    4.15000n      0.           1.8000       0.           1.8000   
    4.16000n      0.           1.8000       0.           1.8000   
    4.17000n      0.           1.8000       0.           1.8000   
    4.18000n      0.           1.8000       0.           1.8000   
    4.19000n      0.           1.8000       0.           1.8000   
    4.20000n      0.           1.8000       0.           1.8000   
    4.21000n      0.           1.8000       0.           1.8000   
    4.22000n      0.           1.8000       0.           1.8000   
    4.23000n      0.           1.8000       0.           1.8000   
    4.24000n      0.           1.8000       0.           1.8000   
    4.25000n      0.           1.8000       0.           1.8000   
    4.26000n      0.           1.8000       0.           1.8000   
    4.27000n      0.           1.8000       0.           1.8000   
    4.28000n      0.           1.8000       0.           1.8000   
    4.29000n      0.           1.8000       0.           1.8000   
    4.30000n      0.           1.8000       0.           1.8000   
    4.31000n      0.           1.8000       0.           1.8000   
    4.32000n      0.           1.8000       0.           1.8000   
    4.33000n      0.           1.8000       0.           1.8000   
    4.34000n      0.           1.8000       0.           1.8000   
    4.35000n      0.           1.8000       0.           1.8000   
    4.36000n      0.           1.8000       0.           1.8000   
    4.37000n      0.           1.8000       0.           1.8000   
    4.38000n      0.           1.8000       0.           1.8000   
    4.39000n      0.           1.8000       0.           1.8000   
    4.40000n      0.           1.8000       0.           1.8000   
    4.41000n      0.           1.8000       0.           1.8000   
    4.42000n      0.           1.8000       0.           1.8000   
    4.43000n      0.           1.8000       0.           1.8000   
    4.44000n      0.           1.8000       0.           1.8000   
    4.45000n      0.           1.8000       0.           1.8000   
    4.46000n      0.           1.8000       0.           1.8000   
    4.47000n      0.           1.8000       0.           1.8000   
    4.48000n      0.           1.8000       0.           1.8000   
    4.49000n      0.           1.8000       0.           1.8000   
    4.50000n      0.           1.8000       0.           1.8000   
    4.51000n      0.           1.8000       0.           1.8000   
    4.52000n      0.           1.8000       0.           1.8000   
    4.53000n      0.           1.8000       0.           1.8000   
    4.54000n      0.           1.8000       0.           1.8000   
    4.55000n      0.           1.8000       0.           1.8000   
    4.56000n      0.           1.8000       0.           1.8000   
    4.57000n      0.           1.8000       0.           1.8000   
    4.58000n      0.           1.8000       0.           1.8000   
    4.59000n      0.           1.8000       0.           1.8000   
    4.60000n      0.           1.8000       0.           1.8000   
    4.61000n      0.           1.8000       0.           1.8000   
    4.62000n      0.           1.8000       0.           1.8000   
    4.63000n      0.           1.8000       0.           1.8000   
    4.64000n      0.           1.8000       0.           1.8000   
    4.65000n      0.           1.8000       0.           1.8000   
    4.66000n      0.           1.8000       0.           1.8000   
    4.67000n      0.           1.8000       0.           1.8000   
    4.68000n      0.           1.8000       0.           1.8000   
    4.69000n      0.           1.8000       0.           1.8000   
    4.70000n      0.           1.8000       0.           1.8000   
    4.71000n      0.           1.8000       0.           1.8000   
    4.72000n      0.           1.8000       0.           1.8000   
    4.73000n      0.           1.8000       0.           1.8000   
    4.74000n      0.           1.8000       0.           1.8000   
    4.75000n      0.           1.8000       0.           1.8000   
    4.76000n      0.           1.8000       0.           1.8000   
    4.77000n      0.           1.8000       0.           1.8000   
    4.78000n      0.           1.8000       0.           1.8000   
    4.79000n      0.           1.8000       0.           1.8000   
    4.80000n      0.           1.8000       0.           1.8000   
    4.81000n      0.           1.8000       0.           1.8000   
    4.82000n      0.           1.8000       0.           1.8000   
    4.83000n      0.           1.8000       0.           1.8000   
    4.84000n      0.           1.8000       0.           1.8000   
    4.85000n      0.           1.8000       0.           1.8000   
    4.86000n      0.           1.8000       0.           1.8000   
    4.87000n      0.           1.8000       0.           1.8000   
    4.88000n      0.           1.8000       0.           1.8000   
    4.89000n      0.           1.8000       0.           1.8000   
    4.90000n      0.           1.8000       0.           1.8000   
    4.91000n      0.           1.8000       0.           1.8000   
    4.92000n      0.           1.8000       0.           1.8000   
    4.93000n      0.           1.8000       0.           1.8000   
    4.94000n      0.           1.8000       0.           1.8000   
    4.95000n      0.           1.8000       0.           1.8000   
    4.96000n      0.           1.8000       0.           1.8000   
    4.97000n      0.           1.8000       0.           1.8000   
    4.98000n      0.           1.8000       0.           1.8000   
    4.99000n      0.           1.8000       0.           1.8000   
    5.00000n      0.           1.8000       0.           1.8000   
    5.01000n      0.           1.8000       0.           1.8000   
    5.02000n      0.           1.8000       0.           1.8000   
    5.03000n      0.           1.8000       0.           1.8000   
    5.04000n      0.           1.8000       0.           1.8000   
    5.05000n      0.           1.8000       0.           1.8000   
    5.06000n      0.           1.8000       0.           1.8000   
    5.07000n      0.           1.8000       0.           1.8000   
    5.08000n      0.           1.8000       0.           1.8000   
    5.09000n      0.           1.8000       0.           1.8000   
    5.10000n      0.           1.8000       0.           1.8000   
    5.11000n      0.           1.8000       0.           1.8000   
    5.12000n      0.           1.8000       0.           1.8000   
    5.13000n      0.           1.8000       0.           1.8000   
    5.14000n      0.           1.8000       0.           1.8000   
    5.15000n      0.           1.8000       0.           1.8000   
    5.16000n      0.           1.8000       0.           1.8000   
    5.17000n      0.           1.8000       0.           1.8000   
    5.18000n      0.           1.8000       0.           1.8000   
    5.19000n      0.           1.8000       0.           1.8000   
    5.20000n      0.           1.8000       0.           1.8000   
    5.21000n      0.           1.8000       0.           1.8000   
    5.22000n      0.           1.8000       0.           1.8000   
    5.23000n      0.           1.8000       0.           1.8000   
    5.24000n      0.           1.8000       0.           1.8000   
    5.25000n      0.           1.8000       0.           1.8000   
    5.26000n      0.           1.8000       0.           1.8000   
    5.27000n      0.           1.8000       0.           1.8000   
    5.28000n      0.           1.8000       0.           1.8000   
    5.29000n      0.           1.8000       0.           1.8000   
    5.30000n      0.           1.8000       0.           1.8000   
    5.31000n      0.           1.8000       0.           1.8000   
    5.32000n      0.           1.8000       0.           1.8000   
    5.33000n      0.           1.8000       0.           1.8000   
    5.34000n      0.           1.8000       0.           1.8000   
    5.35000n      0.           1.8000       0.           1.8000   
    5.36000n      0.           1.8000       0.           1.8000   
    5.37000n      0.           1.8000       0.           1.8000   
    5.38000n      0.           1.8000       0.           1.8000   
    5.39000n      0.           1.8000       0.           1.8000   
    5.40000n      0.           1.8000       0.           1.8000   
    5.41000n      0.           1.8000       0.           1.8000   
    5.42000n      0.           1.8000       0.           1.8000   
    5.43000n      0.           1.8000       0.           1.8000   
    5.44000n      0.           1.8000       0.           1.8000   
    5.45000n      0.           1.8000       0.           1.8000   
    5.46000n      0.           1.8000       0.           1.8000   
    5.47000n      0.           1.8000       0.           1.8000   
    5.48000n      0.           1.8000       0.           1.8000   
    5.49000n      0.           1.8000       0.           1.8000   
    5.50000n      0.           1.8000       0.           1.8000   
    5.51000n      0.           1.8000       0.           1.8000   
    5.52000n      0.           1.8000       0.           1.8000   
    5.53000n      0.           1.8000       0.           1.8000   
    5.54000n      0.           1.8000       0.           1.8000   
    5.55000n      0.           1.8000       0.           1.8000   
    5.56000n      0.           1.8000       0.           1.8000   
    5.57000n      0.           1.8000       0.           1.8000   
    5.58000n      0.           1.8000       0.           1.8000   
    5.59000n      0.           1.8000       0.           1.8000   
    5.60000n      0.           1.8000       0.           1.8000   
    5.61000n      0.           1.8000       0.           1.8000   
    5.62000n      0.           1.8000       0.           1.8000   
    5.63000n      0.           1.8000       0.           1.8000   
    5.64000n      0.           1.8000       0.           1.8000   
    5.65000n      0.           1.8000       0.           1.8000   
    5.66000n      0.           1.8000       0.           1.8000   
    5.67000n      0.           1.8000       0.           1.8000   
    5.68000n      0.           1.8000       0.           1.8000   
    5.69000n      0.           1.8000       0.           1.8000   
    5.70000n      0.           1.8000       0.           1.8000   
    5.71000n      0.           1.8000       0.           1.8000   
    5.72000n      0.           1.8000       0.           1.8000   
    5.73000n      0.           1.8000       0.           1.8000   
    5.74000n      0.           1.8000       0.           1.8000   
    5.75000n      0.           1.8000       0.           1.8000   
    5.76000n      0.           1.8000       0.           1.8000   
    5.77000n      0.           1.8000       0.           1.8000   
    5.78000n      0.           1.8000       0.           1.8000   
    5.79000n      0.           1.8000       0.           1.8000   
    5.80000n      0.           1.8000       0.           1.8000   
    5.81000n      0.           1.8000       0.           1.8000   
    5.82000n      0.           1.8000       0.           1.8000   
    5.83000n      0.           1.8000       0.           1.8000   
    5.84000n      0.           1.8000       0.           1.8000   
    5.85000n      0.           1.8000       0.           1.8000   
    5.86000n      0.           1.8000       0.           1.8000   
    5.87000n      0.           1.8000       0.           1.8000   
    5.88000n      0.           1.8000       0.           1.8000   
    5.89000n      0.           1.8000       0.           1.8000   
    5.90000n      0.           1.8000       0.           1.8000   
    5.91000n      0.           1.8000       0.           1.8000   
    5.92000n      0.           1.8000       0.           1.8000   
    5.93000n      0.           1.8000       0.           1.8000   
    5.94000n      0.           1.8000       0.           1.8000   
    5.95000n      0.           1.8000       0.           1.8000   
    5.96000n      0.           1.8000       0.           1.8000   
    5.97000n      0.           1.8000       0.           1.8000   
    5.98000n      0.           1.8000       0.           1.8000   
    5.99000n      0.           1.8000       0.           1.8000   
    6.00000n      0.           1.8000       0.           1.8000   
    6.01000n      0.           1.8000       0.           1.8000   
    6.02000n      0.           1.8000       0.           1.8000   
    6.03000n      0.           1.8000       0.           1.8000   
    6.04000n      0.           1.8000       0.           1.8000   
    6.05000n      0.           1.8000       0.           1.8000   
    6.06000n      0.           1.8000       0.           1.8000   
    6.07000n      0.           1.8000       0.           1.8000   
    6.08000n      0.           1.8000       0.           1.8000   
    6.09000n      0.           1.8000       0.           1.8000   
    6.10000n      0.           1.8000       0.           1.8000   
    6.11000n      0.           1.8000       0.           1.8000   
    6.12000n      0.           1.8000       0.           1.8000   
    6.13000n      0.           1.8000       0.           1.8000   
    6.14000n      0.           1.8000       0.           1.8000   
    6.15000n      0.           1.8000       0.           1.8000   
    6.16000n      0.           1.8000       0.           1.8000   
    6.17000n      0.           1.8000       0.           1.8000   
    6.18000n      0.           1.8000       0.           1.8000   
    6.19000n      0.           1.8000       0.           1.8000   
    6.20000n      0.           1.8000       0.           1.8000   
    6.21000n      0.           1.8000       0.           1.8000   
    6.22000n      0.           1.8000       0.           1.8000   
    6.23000n      0.           1.8000       0.           1.8000   
    6.24000n      0.           1.8000       0.           1.8000   
    6.25000n      0.           1.8000       0.           1.8000   
    6.26000n      0.           1.8000       0.           1.8000   
    6.27000n      0.           1.8000       0.           1.8000   
    6.28000n      0.           1.8000       0.           1.8000   
    6.29000n      0.           1.8000       0.           1.8000   
    6.30000n      0.           1.8000       0.           1.8000   
    6.31000n      0.           1.8000       0.           1.8000   
    6.32000n      0.           1.8000       0.           1.8000   
    6.33000n      0.           1.8000       0.           1.8000   
    6.34000n      0.           1.8000       0.           1.8000   
    6.35000n      0.           1.8000       0.           1.8000   
    6.36000n      0.           1.8000       0.           1.8000   
    6.37000n      0.           1.8000       0.           1.8000   
    6.38000n      0.           1.8000       0.           1.8000   
    6.39000n      0.           1.8000       0.           1.8000   
    6.40000n      0.           1.8000       0.           1.8000   
    6.41000n      0.           1.8000       0.           1.8000   
    6.42000n      0.           1.8000       0.           1.8000   
    6.43000n      0.           1.8000       0.           1.8000   
    6.44000n      0.           1.8000       0.           1.8000   
    6.45000n      0.           1.8000       0.           1.8000   
    6.46000n      0.           1.8000       0.           1.8000   
    6.47000n      0.           1.8000       0.           1.8000   
    6.48000n      0.           1.8000       0.           1.8000   
    6.49000n      0.           1.8000       0.           1.8000   
    6.50000n      0.           1.8000       0.           1.8000   
    6.51000n      0.           1.8000       0.           1.8000   
    6.52000n      0.           1.8000       0.           1.8000   
    6.53000n      0.           1.8000       0.           1.8000   
    6.54000n      0.           1.8000       0.           1.8000   
    6.55000n      0.           1.8000       0.           1.8000   
    6.56000n      0.           1.8000       0.           1.8000   
    6.57000n      0.           1.8000       0.           1.8000   
    6.58000n      0.           1.8000       0.           1.8000   
    6.59000n      0.           1.8000       0.           1.8000   
    6.60000n      0.           1.8000       0.           1.8000   
    6.61000n      0.           1.8000       0.           1.8000   
    6.62000n      0.           1.8000       0.           1.8000   
    6.63000n      0.           1.8000       0.           1.8000   
    6.64000n      0.           1.8000       0.           1.8000   
    6.65000n      0.           1.8000       0.           1.8000   
    6.66000n      0.           1.8000       0.           1.8000   
    6.67000n      0.           1.8000       0.           1.8000   
    6.68000n      0.           1.8000       0.           1.8000   
    6.69000n      0.           1.8000       0.           1.8000   
    6.70000n      0.           1.8000       0.           1.8000   
    6.71000n      0.           1.8000       0.           1.8000   
    6.72000n      0.           1.8000       0.           1.8000   
    6.73000n      0.           1.8000       0.           1.8000   
    6.74000n      0.           1.8000       0.           1.8000   
    6.75000n      0.           1.8000       0.           1.8000   
    6.76000n      0.           1.8000       0.           1.8000   
    6.77000n      0.           1.8000       0.           1.8000   
    6.78000n      0.           1.8000       0.           1.8000   
    6.79000n      0.           1.8000       0.           1.8000   
    6.80000n      0.           1.8000       0.           1.8000   
    6.81000n      0.           1.8000       0.           1.8000   
    6.82000n      0.           1.8000       0.           1.8000   
    6.83000n      0.           1.8000       0.           1.8000   
    6.84000n      0.           1.8000       0.           1.8000   
    6.85000n      0.           1.8000       0.           1.8000   
    6.86000n      0.           1.8000       0.           1.8000   
    6.87000n      0.           1.8000       0.           1.8000   
    6.88000n      0.           1.8000       0.           1.8000   
    6.89000n      0.           1.8000       0.           1.8000   
    6.90000n      0.           1.8000       0.           1.8000   
    6.91000n      0.           1.8000       0.           1.8000   
    6.92000n      0.           1.8000       0.           1.8000   
    6.93000n      0.           1.8000       0.           1.8000   
    6.94000n      0.           1.8000       0.           1.8000   
    6.95000n      0.           1.8000       0.           1.8000   
    6.96000n      0.           1.8000       0.           1.8000   
    6.97000n      0.           1.8000       0.           1.8000   
    6.98000n      0.           1.8000       0.           1.8000   
    6.99000n      0.           1.8000       0.           1.8000   
    7.00000n      0.           1.8000       0.           1.8000   
    7.01000n      0.           1.8000       0.           1.8000   
    7.02000n      0.           1.8000       0.           1.8000   
    7.03000n      0.           1.8000       0.           1.8000   
    7.04000n      0.           1.8000       0.           1.8000   
    7.05000n      0.           1.8000       0.           1.8000   
    7.06000n      0.           1.8000       0.           1.8000   
    7.07000n      0.           1.8000       0.           1.8000   
    7.08000n      0.           1.8000       0.           1.8000   
    7.09000n      0.           1.8000       0.           1.8000   
    7.10000n      0.           1.8000       0.           1.8000   
[...]
  163.49000n      1.8000   
  163.50000n      1.8000   
  163.51000n      1.8000   
  163.52000n      1.8000   
  163.53000n      1.8000   
  163.54000n      1.8000   
  163.55000n      1.8000   
  163.56000n      1.8000   
  163.57000n      1.8000   
  163.58000n      1.8000   
  163.59000n      1.8000   
  163.60000n      1.8000   
  163.61000n      1.8000   
  163.62000n      1.8000   
  163.63000n      1.8000   
  163.64000n      1.8000   
  163.65000n      1.8000   
  163.66000n      1.8000   
  163.67000n      1.8000   
  163.68000n      1.8000   
  163.69000n      1.8000   
  163.70000n      1.8000   
  163.71000n      1.8000   
  163.72000n      1.8000   
  163.73000n      1.8000   
  163.74000n      1.8000   
  163.75000n      1.8000   
  163.76000n      1.8000   
  163.77000n      1.8000   
  163.78000n      1.8000   
  163.79000n      1.8000   
  163.80000n      1.8000   
  163.81000n      1.8000   
  163.82000n      1.8000   
  163.83000n      1.8000   
  163.84000n      1.8000   
  163.85000n      1.8000   
  163.86000n      1.8000   
  163.87000n      1.8000   
  163.88000n      1.8000   
  163.89000n      1.8000   
  163.90000n      1.8000   
  163.91000n      1.8000   
  163.92000n      1.8000   
  163.93000n      1.8000   
  163.94000n      1.8000   
  163.95000n      1.8000   
  163.96000n      1.8000   
  163.97000n      1.8000   
  163.98000n      1.8000   
  163.99000n      1.8000   
  164.00000n      1.8000   
  164.01000n      1.8000   
  164.02000n      1.8000   
  164.03000n      1.8000   
  164.04000n      1.8000   
  164.05000n      1.8000   
  164.06000n      1.8000   
  164.07000n      1.8000   
  164.08000n      1.8000   
  164.09000n      1.8000   
  164.10000n      1.8000   
  164.11000n      1.8000   
  164.12000n      1.8000   
  164.13000n      1.8000   
  164.14000n      1.8000   
  164.15000n      1.8000   
  164.16000n      1.8000   
  164.17000n      1.8000   
  164.18000n      1.8000   
  164.19000n      1.8000   
  164.20000n      1.8000   
  164.21000n      1.8000   
  164.22000n      1.8000   
  164.23000n      1.8000   
  164.24000n      1.8000   
  164.25000n      1.8000   
  164.26000n      1.8000   
  164.27000n      1.8000   
  164.28000n      1.8000   
  164.29000n      1.8000   
  164.30000n      1.8000   
  164.31000n      1.8000   
  164.32000n      1.8000   
  164.33000n      1.8000   
  164.34000n      1.8000   
  164.35000n      1.8000   
  164.36000n      1.8000   
  164.37000n      1.8000   
  164.38000n      1.8000   
  164.39000n      1.8000   
  164.40000n      1.8000   
  164.41000n      1.8000   
  164.42000n      1.8000   
  164.43000n      1.8000   
  164.44000n      1.8000   
  164.45000n      1.8000   
  164.46000n      1.8000   
  164.47000n      1.8000   
  164.48000n      1.8000   
  164.49000n      1.8000   
  164.50000n      1.8000   
  164.51000n      1.8000   
  164.52000n      1.8000   
  164.53000n      1.8000   
  164.54000n      1.8000   
  164.55000n      1.8000   
  164.56000n      1.8000   
  164.57000n      1.8000   
  164.58000n      1.8000   
  164.59000n      1.8000   
  164.60000n      1.8000   
  164.61000n      1.8000   
  164.62000n      1.8000   
  164.63000n      1.8000   
  164.64000n      1.8000   
  164.65000n      1.8000   
  164.66000n      1.8000   
  164.67000n      1.8000   
  164.68000n      1.8000   
  164.69000n      1.8000   
  164.70000n      1.8000   
  164.71000n      1.8000   
  164.72000n      1.8000   
  164.73000n      1.8000   
  164.74000n      1.8000   
  164.75000n      1.8000   
  164.76000n      1.8000   
  164.77000n      1.8000   
  164.78000n      1.8000   
  164.79000n      1.8000   
  164.80000n      1.8000   
  164.81000n      1.8000   
  164.82000n      1.8000   
  164.83000n      1.8000   
  164.84000n      1.8000   
  164.85000n      1.8000   
  164.86000n      1.8000   
  164.87000n      1.8000   
  164.88000n      1.8000   
  164.89000n      1.8000   
  164.90000n      1.8000   
  164.91000n      1.8000   
  164.92000n      1.8000   
  164.93000n      1.8000   
  164.94000n      1.8000   
  164.95000n      1.8000   
  164.96000n      1.8000   
  164.97000n      1.8000   
  164.98000n      1.8000   
  164.99000n      1.8000   
  165.00000n      1.8000   
  165.01000n      1.8000   
  165.02000n      1.8000   
  165.03000n      1.8000   
  165.04000n      1.8000   
  165.05000n      1.8000   
  165.06000n      1.8000   
  165.07000n      1.8000   
  165.08000n      1.8000   
  165.09000n      1.8000   
  165.10000n      1.8000   
  165.11000n      1.8000   
  165.12000n      1.8000   
  165.13000n      1.8000   
  165.14000n      1.8000   
  165.15000n      1.8000   
  165.16000n      1.8000   
  165.17000n      1.8000   
  165.18000n      1.8000   
  165.19000n      1.8000   
  165.20000n      1.8000   
  165.21000n      1.8000   
  165.22000n      1.8000   
  165.23000n      1.8000   
  165.24000n      1.8000   
  165.25000n      1.8000   
  165.26000n      1.8000   
  165.27000n      1.8000   
  165.28000n      1.8000   
  165.29000n      1.8000   
  165.30000n      1.8000   
  165.31000n      1.8000   
  165.32000n      1.8000   
  165.33000n      1.8000   
  165.34000n      1.8000   
  165.35000n      1.8000   
  165.36000n      1.8000   
  165.37000n      1.8000   
  165.38000n      1.8000   
  165.39000n      1.8000   
  165.40000n      1.8000   
  165.41000n      1.8000   
  165.42000n      1.8000   
  165.43000n      1.8000   
  165.44000n      1.8000   
  165.45000n      1.8000   
  165.46000n      1.8000   
  165.47000n      1.8000   
  165.48000n      1.8000   
  165.49000n      1.8000   
  165.50000n      1.8000   
  165.51000n      1.8000   
  165.52000n      1.8000   
  165.53000n      1.8000   
  165.54000n      1.8000   
  165.55000n      1.8000   
  165.56000n      1.8000   
  165.57000n      1.8000   
  165.58000n      1.8000   
  165.59000n      1.8000   
  165.60000n      1.8000   
  165.61000n      1.8000   
  165.62000n      1.8000   
  165.63000n      1.8000   
  165.64000n      1.8000   
  165.65000n      1.8000   
  165.66000n      1.8000   
  165.67000n      1.8000   
  165.68000n      1.8000   
  165.69000n      1.8000   
  165.70000n      1.8000   
  165.71000n      1.8000   
  165.72000n      1.8000   
  165.73000n      1.8000   
  165.74000n      1.8000   
  165.75000n      1.8000   
  165.76000n      1.8000   
  165.77000n      1.8000   
  165.78000n      1.8000   
  165.79000n      1.8000   
  165.80000n      1.8000   
  165.81000n      1.8000   
  165.82000n      1.8000   
  165.83000n      1.8000   
  165.84000n      1.8000   
  165.85000n      1.8000   
  165.86000n      1.8000   
  165.87000n      1.8000   
  165.88000n      1.8000   
  165.89000n      1.8000   
  165.90000n      1.8000   
  165.91000n      1.8000   
  165.92000n      1.8000   
  165.93000n      1.8000   
  165.94000n      1.8000   
  165.95000n      1.8000   
  165.96000n      1.8000   
  165.97000n      1.8000   
  165.98000n      1.8000   
  165.99000n      1.8000   
  166.00000n      1.8000   
  166.01000n      1.8000   
  166.02000n      1.8000   
  166.03000n      1.8000   
  166.04000n      1.8000   
  166.05000n      1.8000   
  166.06000n      1.8000   
  166.07000n      1.8000   
  166.08000n      1.8000   
  166.09000n      1.8000   
  166.10000n      1.8000   
  166.11000n      1.8000   
  166.12000n      1.8000   
  166.13000n      1.8000   
  166.14000n      1.8000   
  166.15000n      1.8000   
  166.16000n      1.8000   
  166.17000n      1.8000   
  166.18000n      1.8000   
  166.19000n      1.8000   
  166.20000n      1.8000   
  166.21000n      1.8000   
  166.22000n      1.8000   
  166.23000n      1.8000   
  166.24000n      1.8000   
  166.25000n      1.8000   
  166.26000n      1.8000   
  166.27000n      1.8000   
  166.28000n      1.8000   
  166.29000n      1.8000   
  166.30000n      1.8000   
  166.31000n      1.8000   
  166.32000n      1.8000   
  166.33000n      1.8000   
  166.34000n      1.8000   
  166.35000n      1.8000   
  166.36000n      1.8000   
  166.37000n      1.8000   
  166.38000n      1.8000   
  166.39000n      1.8000   
  166.40000n      1.8000   
  166.41000n      1.8000   
  166.42000n      1.8000   
  166.43000n      1.8000   
  166.44000n      1.8000   
  166.45000n      1.8000   
  166.46000n      1.8000   
  166.47000n      1.8000   
  166.48000n      1.8000   
  166.49000n      1.8000   
  166.50000n      1.8000   
  166.51000n      1.8000   
  166.52000n      1.8000   
  166.53000n      1.8000   
  166.54000n      1.8000   
  166.55000n      1.8000   
  166.56000n      1.8000   
  166.57000n      1.8000   
  166.58000n      1.8000   
  166.59000n      1.8000   
  166.60000n      1.8000   
  166.61000n      1.8000   
  166.62000n      1.8000   
  166.63000n      1.8000   
  166.64000n      1.8000   
  166.65000n      1.8000   
  166.66000n      1.8000   
  166.67000n      1.8000   
  166.68000n      1.8000   
  166.69000n      1.8000   
  166.70000n      1.8000   
  166.71000n      1.8000   
  166.72000n      1.8000   
  166.73000n      1.8000   
  166.74000n      1.8000   
  166.75000n      1.8000   
  166.76000n      1.8000   
  166.77000n      1.8000   
  166.78000n      1.8000   
  166.79000n      1.8000   
  166.80000n      1.8000   
  166.81000n      1.8000   
  166.82000n      1.8000   
  166.83000n      1.8000   
  166.84000n      1.8000   
  166.85000n      1.8000   
  166.86000n      1.8000   
  166.87000n      1.8000   
  166.88000n      1.8000   
  166.89000n      1.8000   
  166.90000n      1.8000   
  166.91000n      1.8000   
  166.92000n      1.8000   
  166.93000n      1.8000   
  166.94000n      1.8000   
  166.95000n      1.8000   
  166.96000n      1.8000   
  166.97000n      1.8000   
  166.98000n      1.8000   
  166.99000n      1.8000   
  167.00000n      1.8000   
  167.01000n      1.8000   
  167.02000n      1.8000   
  167.03000n      1.8000   
  167.04000n      1.8000   
  167.05000n      1.8000   
  167.06000n      1.8000   
  167.07000n      1.8000   
  167.08000n      1.8000   
  167.09000n      1.8000   
  167.10000n      1.8000   
  167.11000n      1.8000   
  167.12000n      1.8000   
  167.13000n      1.8000   
  167.14000n      1.8000   
  167.15000n      1.8000   
  167.16000n      1.8000   
  167.17000n      1.8000   
  167.18000n      1.8000   
  167.19000n      1.8000   
  167.20000n      1.8000   
  167.21000n      1.8000   
  167.22000n      1.8000   
  167.23000n      1.8000   
  167.24000n      1.8000   
  167.25000n      1.8000   
  167.26000n      1.8000   
  167.27000n      1.8000   
  167.28000n      1.8000   
  167.29000n      1.8000   
  167.30000n      1.8000   
  167.31000n      1.8000   
  167.32000n      1.8000   
  167.33000n      1.8000   
  167.34000n      1.8000   
  167.35000n      1.8000   
  167.36000n      1.8000   
  167.37000n      1.8000   
  167.38000n      1.8000   
  167.39000n      1.8000   
  167.40000n      1.8000   
  167.41000n      1.8000   
  167.42000n      1.8000   
  167.43000n      1.8000   
  167.44000n      1.8000   
  167.45000n      1.8000   
  167.46000n      1.8000   
  167.47000n      1.8000   
  167.48000n      1.8000   
  167.49000n      1.8000   
  167.50000n      1.8000   
  167.51000n      1.8000   
  167.52000n      1.8000   
  167.53000n      1.8000   
  167.54000n      1.8000   
  167.55000n      1.8000   
  167.56000n      1.8000   
  167.57000n      1.8000   
  167.58000n      1.8000   
  167.59000n      1.8000   
  167.60000n      1.8000   
  167.61000n      1.8000   
  167.62000n      1.8000   
  167.63000n      1.8000   
  167.64000n      1.8000   
  167.65000n      1.8000   
  167.66000n      1.8000   
  167.67000n      1.8000   
  167.68000n      1.8000   
  167.69000n      1.8000   
  167.70000n      1.8000   
  167.71000n      1.8000   
  167.72000n      1.8000   
  167.73000n      1.8000   
  167.74000n      1.8000   
  167.75000n      1.8000   
  167.76000n      1.8000   
  167.77000n      1.8000   
  167.78000n      1.8000   
  167.79000n      1.8000   
  167.80000n      1.8000   
  167.81000n      1.8000   
  167.82000n      1.8000   
  167.83000n      1.8000   
  167.84000n      1.8000   
  167.85000n      1.8000   
  167.86000n      1.8000   
  167.87000n      1.8000   
  167.88000n      1.8000   
  167.89000n      1.8000   
  167.90000n      1.8000   
  167.91000n      1.8000   
  167.92000n      1.8000   
  167.93000n      1.8000   
  167.94000n      1.8000   
  167.95000n      1.8000   
  167.96000n      1.8000   
  167.97000n      1.8000   
  167.98000n      1.8000   
  167.99000n      1.8000   
  168.00000n      1.8000   
  168.01000n      1.8000   
  168.02000n      1.8000   
  168.03000n      1.8000   
  168.04000n      1.8000   
  168.05000n      1.8000   
  168.06000n      1.8000   
  168.07000n      1.8000   
  168.08000n      1.8000   
  168.09000n      1.8000   
  168.10000n      1.8000   
  168.11000n      1.8000   
  168.12000n      1.8000   
  168.13000n      1.8000   
  168.14000n      1.8000   
  168.15000n      1.8000   
  168.16000n      1.8000   
  168.17000n      1.8000   
  168.18000n      1.8000   
  168.19000n      1.8000   
  168.20000n      1.8000   
  168.21000n      1.8000   
  168.22000n      1.8000   
  168.23000n      1.8000   
  168.24000n      1.8000   
  168.25000n      1.8000   
  168.26000n      1.8000   
  168.27000n      1.8000   
  168.28000n      1.8000   
  168.29000n      1.8000   
  168.30000n      1.8000   
  168.31000n      1.8000   
  168.32000n      1.8000   
  168.33000n      1.8000   
  168.34000n      1.8000   
  168.35000n      1.8000   
  168.36000n      1.8000   
  168.37000n      1.8000   
  168.38000n      1.8000   
  168.39000n      1.8000   
  168.40000n      1.8000   
  168.41000n      1.8000   
  168.42000n      1.8000   
  168.43000n      1.8000   
  168.44000n      1.8000   
  168.45000n      1.8000   
  168.46000n      1.8000   
  168.47000n      1.8000   
  168.48000n      1.8000   
  168.49000n      1.8000   
  168.50000n      1.8000   
  168.51000n      1.8000   
  168.52000n      1.8000   
  168.53000n      1.8000   
  168.54000n      1.8000   
  168.55000n      1.8000   
  168.56000n      1.8000   
  168.57000n      1.8000   
  168.58000n      1.8000   
  168.59000n      1.8000   
  168.60000n      1.8000   
  168.61000n      1.8000   
  168.62000n      1.8000   
  168.63000n      1.8000   
  168.64000n      1.8000   
  168.65000n      1.8000   
  168.66000n      1.8000   
  168.67000n      1.8000   
  168.68000n      1.8000   
  168.69000n      1.8000   
  168.70000n      1.8000   
  168.71000n      1.8000   
  168.72000n      1.8000   
  168.73000n      1.8000   
  168.74000n      1.8000   
  168.75000n      1.8000   
  168.76000n      1.8000   
  168.77000n      1.8000   
  168.78000n      1.8000   
  168.79000n      1.8000   
  168.80000n      1.8000   
  168.81000n      1.8000   
  168.82000n      1.8000   
  168.83000n      1.8000   
  168.84000n      1.8000   
  168.85000n      1.8000   
  168.86000n      1.8000   
  168.87000n      1.8000   
  168.88000n      1.8000   
  168.89000n      1.8000   
  168.90000n      1.8000   
  168.91000n      1.8000   
  168.92000n      1.8000   
  168.93000n      1.8000   
  168.94000n      1.8000   
  168.95000n      1.8000   
  168.96000n      1.8000   
  168.97000n      1.8000   
  168.98000n      1.8000   
  168.99000n      1.8000   
  169.00000n      1.8000   
  169.01000n      1.8000   
  169.02000n      1.8000   
  169.03000n      1.8000   
  169.04000n      1.8000   
  169.05000n      1.8000   
  169.06000n      1.8000   
  169.07000n      1.8000   
  169.08000n      1.8000   
  169.09000n      1.8000   
  169.10000n      1.8000   
  169.11000n      1.8000   
  169.12000n      1.8000   
  169.13000n      1.8000   
  169.14000n      1.8000   
  169.15000n      1.8000   
  169.16000n      1.8000   
  169.17000n      1.8000   
  169.18000n      1.8000   
  169.19000n      1.8000   
  169.20000n      1.8000   
  169.21000n      1.8000   
  169.22000n      1.8000   
  169.23000n      1.8000   
  169.24000n      1.8000   
  169.25000n      1.8000   
  169.26000n      1.8000   
  169.27000n      1.8000   
  169.28000n      1.8000   
  169.29000n      1.8000   
  169.30000n      1.8000   
  169.31000n      1.8000   
  169.32000n      1.8000   
  169.33000n      1.8000   
  169.34000n      1.8000   
  169.35000n      1.8000   
  169.36000n      1.8000   
  169.37000n      1.8000   
  169.38000n      1.8000   
  169.39000n      1.8000   
  169.40000n      1.8000   
  169.41000n      1.8000   
  169.42000n      1.8000   
  169.43000n      1.8000   
  169.44000n      1.8000   
  169.45000n      1.8000   
  169.46000n      1.8000   
  169.47000n      1.8000   
  169.48000n      1.8000   
  169.49000n      1.8000   
  169.50000n      1.8000   
  169.51000n      1.8000   
  169.52000n      1.8000   
  169.53000n      1.8000   
  169.54000n      1.8000   
  169.55000n      1.8000   
  169.56000n      1.8000   
  169.57000n      1.8000   
  169.58000n      1.8000   
  169.59000n      1.8000   
  169.60000n      1.8000   
  169.61000n      1.8000   
  169.62000n      1.8000   
  169.63000n      1.8000   
  169.64000n      1.8000   
  169.65000n      1.8000   
  169.66000n      1.8000   
  169.67000n      1.8000   
  169.68000n      1.8000   
  169.69000n      1.8000   
  169.70000n      1.8000   
  169.71000n      1.8000   
  169.72000n      1.8000   
  169.73000n      1.8000   
  169.74000n      1.8000   
  169.75000n      1.8000   
  169.76000n      1.8000   
  169.77000n      1.8000   
  169.78000n      1.8000   
  169.79000n      1.8000   
  169.80000n      1.8000   
  169.81000n      1.8000   
  169.82000n      1.8000   
  169.83000n      1.8000   
  169.84000n      1.8000   
  169.85000n      1.8000   
  169.86000n      1.8000   
  169.87000n      1.8000   
  169.88000n      1.8000   
  169.89000n      1.8000   
  169.90000n      1.8000   
  169.91000n      1.8000   
  169.92000n      1.8000   
  169.93000n      1.8000   
  169.94000n      1.8000   
  169.95000n      1.8000   
  169.96000n      1.8000   
  169.97000n      1.8000   
  169.98000n      1.8000   
  169.99000n      1.8000   
  170.00000n      1.8000   
y

          ***** job concluded
1****** HSPICE -- D-2010.03-SP1 32-BIT (May 26 2010) winnt ******               
 ******  
 first line of the netlist must be blank.

  ******  job statistics summary tnom=  25.000 temp= 100.000 *****

  ******  HSPICE Threads Information  ******

  Command Line Threads Count                  :     1
  Available CPU Count                         :     4
  Actual Model Evaluation(Load) Threads Count :     1
  Actual Solver Threads Count                 :     1


  ******  Circuit Statistics  ******
  # nodes       =      65 # elements   =      28
  # resistors   =       0 # capacitors =       0 # inductors   =       0
  # mutual_inds =       0 # vccs       =       0 # vcvs        =       0
  # cccs        =       0 # ccvs       =       0 # volt_srcs   =       4
  # curr_srcs   =       0 # diodes     =       0 # bjts        =       0
  # jfets       =       0 # mosfets    =      24 # U elements  =       0
  # T elements  =       0 # W elements =       0 # B elements  =       0
  # S elements  =       0 # P elements =       0 # va device   =       0


  ******  Runtime Statistics (seconds)  ******

  analysis           time    # points   tot. iter  conv.iter
  op point           0.01           1          18
  transient          0.04       17001          56          28 rev=         0
  readin             0.10
  errchk             0.02
  setup              0.01
  output             0.07


           total memory used          506  kbytes
           total cpu time            0.27 seconds
           total elapsed time        0.32 seconds
           job started at     13:41:55 12/02/2014
           job ended   at     13:41:55 12/02/2014


  lic: Release hspice token(s) 
